==PAGE:1==
 
 
 
 
 
 
 
 
 
 
 
Paras B. Bagade, s130700 
 
 
 
 
 
 
 
 
Modelling of Future Power Systems on Real Time 
Digital Simulator (RTDS) and PSS/E 
 
 
 
 
 
 
 
 
 
M.Sc. Thesis, July 2015 
 
 
 
 
 
==PAGE:2==
 
 
[i] 
 
 
 
 
Modelling of Future 
Power Systems on 
Real Time Digital 
Simulator (RTDS) 
and PSS/E 
July 21 
2015 
This report contains documentation on type IV Wind Turbine 
Technology and its effect on power system stability. The initial chapters 
deal with the motivation and theory behind the need of integration of 
Wind Power in Power systems giving some attention to climate change 
and governmental guidelines to arrest it. The next section deals with 
testing of wind turbine technology on RTDS. This is followed by 
integrating the chosen Wind turbines in a large power system (NORDIC 
32). Lastly, various instability scenarios are presented with analyses, 
clearly differentiating the behavior of the grid with and without the wind 
farms. Conclusions and some suggestions on future work are being 
made.  
Analyzing the 
Stability issues in 
NORDIC 32 with 
Wind Power 
Integration on 
PSS/E 
Centre for Electric Power and Energy (CEE) 
Department of Electrical Engineering 
Technical University of Denmark 
Elektrovej 358, 2800 Kgs Lyngby 
Denmark 
 
Web:  www.cee.elektro.dtu.dk 
Tel:  
+45 - 45 25 35 00 
E-mail: cee@elektro.dtu.dk 
This report is a part of the requirements to achieve the MSc Degree at Technical University of Denmark 
and represents 30 ECTS points.  
Prepared by 
Paras B. Bagade (student no: s130700 ) 
Supervisors:  
Hjörtur Jóhannsson 
Pauli Fríðheim Petersen 
==PAGE:3==
 
 
[ii] 
 
Abstract 
This thesis is aimed at evaluating electric grid conditions which has high percentage share of 
wind power in the system. The structure of the report is built on the framework of testing and 
evaluation of Wind Turbine type IV model (provided by PSS/E). Different type IV WT 
models are tested on a single machine infinite bus system on RTDS and the best one is 
incorporated in the NORDIC 32 system, which is the main test system on which all the 
studies are being done. This system is chosen because it closely emulates the dynamics in the 
real NORDIC system. The simulation platform on which the studies are done is PSS/E. The 
components in the network responsible for dynamic behaviour of the system are being 
studied and presented as well. Care has been taken that when Wind farm is integrated in the 
system the time step for simulation is set to 5ms. This is necessary in order to capture all the 
dynamics in the power electronics (Converter system) of the type IV wind turbines. The 
initial aim was to compare the simulation results on PSS/E and RTDS but due to technical 
challenges and deviations of work from evaluating the system condition to understanding the 
control system of type IV Wind Turbines, the modelling part on RTDS is left for the future 
work.Various stabilities scenarios concerning Voltage, Small Signal and Transient stability 
are being developed and the results are analysed. At last conclusions are being made and 
possible future work which can be carried out on the same lines is mentioned. 
 
 
 
 
 
 
 
 
 
 
 
 
 
 
 
==PAGE:4==
 
 
[iii] 
 
Preface 
This thesis is a part of the curriculum set by DTU for completion of Masters of Electric 
Engineering in Energy Systems. It was carried out completely at the Department of Electric 
Engineering, Technical University of Denmark, with all the facilities provided by the 
institution.  
The work presented in this report draws its inspiration from the set targets by various 
governments toward more sustainable power systems. In view of this, Wind power which is 
most abundantly and efficiently exploited in the present time has been given main 
importance. As the technology of wind turbines has evolved over the years and with stricter 
grid codes set by the operators, type IV WTs were chosen for all the studies made herein 
because of their superior operational capabilities.  
I would like to thank DTU for the best and the most challenging experience of my life both 
on a personal and social level. DTU administration had been immensely helpful in every 
matter and I am highly obliged for that.  
I would like to take this opportunity to thank my supervisor, Assistant Professor Hjortur 
Johansson, for his never ending patience and support throughout this period of project work. 
Even though the number of meetings was limited and were through video conferencing, his 
acute observations and inputs were the key to take my work forward. I would also like to 
thank my co-supervisor, PhD Pauli Fridheim Petersen for his continued support and 
challenging questions which helped me evolve during this period.  
I would like to take this chance and thank my dearest friends Reza and Maros who are also 
Master students at DTU for their constant support and push through all my hard times. 
Last but not the least I also want to thank my parents and my brothers for their love, support 
and constant guidance in all of my endeavours.  
 
==PAGE:5==
 
 
[iv] 
 
Contents 
PART I - Background, Motivation and Theoretical Concepts ................................................................ 1 
Chapter 1 - 
Introduction .................................................................................................................... 2 
1.1 
Roadmap for RES Integration and Need for Modelling Future Power Systems ..................... 2 
1.2 
Technical Factors .................................................................................................................... 3 
1.3 
Stability Issues in the Grid ....................................................................................................... 3 
1.4 
Grid Code Requirements for a Wind Farm.............................................................................. 4 
1.5 
Objectives of this Project ........................................................................................................ 5 
Chapter 2 - 
Different types of Stabilities in a Power System and Factors Responsible ..................... 6 
2.1 
Frequency Stability .................................................................................................................. 6 
2.1.1 
Droop of the Machines and Participation in Frequency Stabilization ............................ 6 
2.1.2 
Governors in a System and their Participation ............................................................... 6 
2.2 
Small Signal Stability.............................................................................................................. 8 
2.2.1 
Excitation System and Small Signal Stability ................................................................... 8 
2.2.2 
Types of Small Signal Stability ....................................................................................... 10 
2.3 
Transient Stability (Equal Area Criterion) ............................................................................ 11 
2.3.1 
Background ................................................................................................................... 11 
2.3.2 
Equal Area Criterion for Investigating Transient Stability ........................................... 11 
2.3.3 
Simulation Principle ...................................................................................................... 15 
2.4 
Voltage Stability ................................................................................................................... 16 
2.4.1 
Cause Behind Voltage Instability.................................................................................. 16 
2.4.2 
Basic Theory and Derivation of PV Curves .................................................................. 16 
2.4.3 
Phenomenon of Voltage Collapse ................................................................................. 18 
2.4.4 
Effect of ULTC and Load Composition in Voltage Stability ....................................... 18 
PART II – Equipments and their Modelling in Power System Studies ................................................. 19 
Chapter 3 - 
Dynamic Models of Components in the Power System ................................................ 20 
3.1 
Synchronous Machine Dynamic Models ............................................................................... 20 
Excitation System – Working as a whole ......................................................................................... 20 
3.1.1 
Automatic Voltage Regulator (AVR) ........................................................................... 20 
3.1.2 
Limiters (As protective Functions) ............................................................................... 21 
3.1.3 
Power System Stabilizer (Stability Improvement function) ......................................... 21 
3.1.4 
Tap Changing Transformer (OLTC) ............................................................................. 21 
3.2 
Type IV Wind Turbine Dynamic Models ................................................................................ 21 
3.2.1 
WT4G1 – Generator Module ........................................................................................ 21 
==PAGE:6==
 
 
[v] 
 
3.2.2 
WT4E1 – Electrical Module ........................................................................................... 22 
3.2.3 
Converter Current Limit ................................................................................................ 23 
3.2.4 
Typical Parameter Values Used in the Studies ............................................................. 23 
Chapter 4 - 
NORDIC 32 – Topology and Brief Overview .................................................................. 25 
4.1 
System Topology and Brief Description ................................................................................ 25 
4.2 
Area-Wise Tie Line Flows in the Studied System ................................................................ 26 
Chapter 5 - 
Validation of Wind Turbine Models .............................................................................. 27 
5.1 
Need and Considerations for Modelling ............................................................................... 27 
5.2 
Type IV Wind Turbine at a Glance – Capability and Conversion Principle ............................ 28 
5.3 
Different Representations of Type IV Wind Turbine Models ............................................... 30 
5.4 
RTDS Simulations and Results of Various Type IV Wind Turbine Models ............................. 30 
5.4.1 
RTDS configuration - Hardware/Software ................................................................... 31 
5.5 
Testing of different type IV WT turbine models ................................................................... 31 
5.5.1 
Detailed WT Model including all the Aerodynamic, Converter and PMSM ................ 31 
5.5.2 
Comparison of Performance of Different Models during Fault Condition in terms of 
Voltages, Active and Reactive Power at the PCC with the Grid .................................................... 36 
 ...................................................................................................................................................... 36 
5.5.3 
Computational Loading on the RTDS Simulation Platform ......................................... 38 
5.6 
Summary of the Obtained Results from Testing ................................................................... 40 
PART III– Initialization and Testing Approach for the System ............................................................ 41 
Chapter 6 - 
Wind Power Model Initialization and Testing Criterion ................................................ 42 
6.1 
Modelling of Large Wind Farms in Power System Simulations ............................................ 42 
6.1.1 
Problem of Numerical Instability Due to Improper Simulation Step Size ..................... 42 
6.1.2 
Visualization of uncharacteristic spikes in present simulation studies......................... 43 
6.2 
Testing Criterion of Wind Power Integration ....................................................................... 44 
6.2.1 
By increasing the percentage of wind penetration in the Grid .................................... 44 
6.2.2 
By changing the voltage level (Location) at which Wind Farms are connected ........... 44 
6.2.3 
Changing the Loading in the Network .......................................................................... 44 
PART IV – Simulations and Analyses of Different Scenarios on NORDIC 32 .................................... 45 
Chapter 7 - 
Analyses of Voltage Stability ......................................................................................... 46 
7.1 
Wind Farm at different locations and tripping of a circuit ................................................... 46 
7.2 
Tripping of Important Inter-Regional Lines ........................................................................... 49 
7.2.1 
Case I: 4032-4044 tripping ............................................................................................ 49 
7.2.2 
Case II: Tripping of 4042-4043, with increased demand for reactive power. ............... 50 
==PAGE:7==
 
 
[vi] 
 
Partial Conclusion – Wind Power and Voltage Stability ................................................................... 51 
Chapter 8 - 
Analyses of Small Signal Stability .................................................................................. 52 
Case A - Instability with tripping of branch 4041-4042 .................................................................... 52 
Case B – Modification of Case A (tripping of branch 4032-4042) ..................................................... 54 
Case C - Instability with tripping of branch 4045-4062 ..................................................................... 56 
Partial Conclusion - Wind Power and Small Signal Stability ............................................................. 58 
Chapter 9 - 
Analyses of Transient Stability ...................................................................................... 59 
Case A ................................................................................................................................................ 59 
Case B ................................................................................................................................................ 62 
Partial Conclusion – Transient Stability with Wind Integration ........................................................ 63 
Part V - Conclusion and Summary of Work ........................................................................................... 64 
Chapter 10 - 
Conclusion and Future Work .................................................................................... 65 
Bibliography ......................................................................................................................................... 67 
Appendix A - Network Data .................................................................................................................. 69 
A 1 – Bus Data ................................................................................................................................... 69 
A 2 – Plant Wise Data ........................................................................................................................ 70 
A 3 – Unit Wise Data ......................................................................................................................... 70 
A 4 – Shunt Data ............................................................................................................................... 71 
A 5 – Branch Data .............................................................................................................................. 72 
A 6 – Transformer Winding Data ...................................................................................................... 73 
A 7 – Transformer Control Data ........................................................................................................ 74 
Appendix B – Area wise Report of the NORDIC 32 Base Case .............................................................. 75 
Appendix C - Dynamic Component Models .......................................................................................... 79 
C 1 - Generator Models ..................................................................................................................... 79 
C 2 – Excitation System Model .......................................................................................................... 80 
C 3 – Power System Stabilizers (STAB 2A)......................................................................................... 80 
C 3 - Maximum Exciter Limiter Model .............................................................................................. 81 
C 4 – On Line Tap Changer Model (OLTC) ......................................................................................... 81 
 
 
 
==PAGE:8==
 
 
[vii] 
 
List of Figures 
Figure 2.1 Droop Characteristic of a Machine ........................................................................................ 7 
Figure 2.2 Equal Area Criterion used for determining (a) STABLE and (b) UNSTABLE system ............. 12 
Figure 3.1- Excitation System Basic Control/Function Logic ................................................................. 20 
Figure 5.1 - Wind Turbine Pitch Controller System .............................................................................. 32 
Figure 5.5.2 - Grid Side VSC Control System ......................................................................................... 33 
Figure 5.5.3 - Power Factor Control Method for Reactive Power output ............................................ 34 
Figure 5.5.4 - Circuitry of PMSM with the Converter System and DC link ............................................ 34 
Figure 5.5.5 - PMSM parameters .......................................................................................................... 35 
Figure 5.5.6 - Voltage, Active and Reactive Power at PCC for Detailed model .................................... 36 
Figure 5.5.7 - Voltage, Active and Reactive Power at PCC for Current Source Representation ........... 37 
Figure 5.5.8 - Voltage, Active and Reactive Power at PCC for No Machine Representation ................ 37 
Figure 5.5.9 - Computing requirements of detailed WT Model ........................................................... 38 
Figure 5.5.10 - Computing requirements of Current Source Representation of WT model ................ 38 
Figure 5.5.11 - Computing requirements of Averaged No Machine Representation of WT model ..... 39 
Figure 5.5.12 - Computing requirements of Voltage Source Representation of WT model ................ 39 
Figure 6.1 - An example of uncharacteristic spikes due to WT modelling [12] .................................... 42 
Figure 6.2 - Cause of uncharacteristic spikes in PSS/E simulations ...................................................... 43 
Figure 7.1 - (a) Bus Voltages in the Central region  and (b) Machined Field Voltages with highest 
sensitivities ............................................................................................................................................ 46 
Figure 7.2 (a) Bus Voltages in the Central region and (b) Machined Field Voltages ............................ 47 
Figure 7.3 - (a) Reactive Power output and (b) Machined Field Voltages ............................................ 47 
Figure 7.4 - (a) Reactive Power output and (b) Machined Field Voltages ............................................ 48 
Figure 7.5 - Bus voltages in Central Region for 4032-4044 tripping (i) Conventional (ii) WF at 4042 .. 49 
Figure 7.6 – Machine Field voltages for 4032-4044 tripping (i) Conventional (ii) WF at 4042 ............. 49 
Figure 7.7 - Bus voltages in Central Region for Higher “Q” demand 4042-4043 tripping (i) 
Conventional (ii) WF at 4051 ................................................................................................................ 50 
Figure 7.8 – Field Voltages for Higher “Q” demand 4042-4043 tripping (i) Conventional (ii) WF at 
4051 ...................................................................................................................................................... 50 
Figure 8.1 Bus Voltages (a) Conventional System                                 (b) Wind Farm at Bus 2032 ........ 52 
Figure 8.2 Activation of OELs (a) Conventional system (b) Wind Farm at Bus 2032 ............................ 52 
Figure 8.3 Rotor Angles (a) Conventional System (b) Wind Farm at Bus 2032 ..................................... 53 
Figure 8.4 Central Region Bus Voltages for Case B (a) Conventional System (b) Wind Farm at Bus 
2032 ...................................................................................................................................................... 54 
Figure 8.5 – Field Voltages for Case B (a) Conventional System                                (b) Wind Farm at Bus 
2032 ...................................................................................................................................................... 55 
Figure 8.6 - Rotor Angles (a) Conventional (b) Wind Farm at 2032 ...................................................... 55 
Figure 8.7 - Bus Voltages for Case C (a) Conventional and (b) Wind Farm at Bus 1042 and 4051 ....... 56 
Figure 8.8 - Field Voltages for Case C (a) Conventional (b) Wind Farms at 1042 and 4051 ................. 57 
Figure 9.1 Rotor Angle deviation in four cases during fault on 4042-4043  ......................................... 59 
Figure 9.2 - Fault time for Rotor Angles separation in four cases during fault on 4042-4043 ............. 61 
Figure 9.4 Collapsed System Voltages beyond critical transient time .................................................. 61 
Figure 9.5 rotor Angle deviation with a fault on ckt I 4031-4041 ......................................................... 62 
 
==PAGE:9==
 
 
1 
 
 
 
 
 
 
 
 
 
 
 
PART I - Background, Motivation and Theoretical Concepts 
 
 
==PAGE:10==
 
 
2 
 
Chapter 1 - Introduction 
1.1 Roadmap for RES Integration and Need for Modelling Future Power 
Systems 
In Denmark, over the next few years, the government has ambitious plans of transforming the 
power systems from being a fossil fuel based to a completely renewable energy source based 
entity. By the year 2030, 50% of power generation and consumption is to be played by the 
renewable energies. A staggering surge in the percentage share from the wind power has 
already been seen in the last decade and its share rose from a mere 12% in 2000 to 30 % in 
2012. However, with such a high penetration of renewable sources in the grid, the technical 
challenges to be faced by the grid operators and engineers are enormous. The basic nature of 
the power system is quite fluctuating due to the unpredictable nature of the load side 
behaviour. Adding to this, with their high percentage share, the complex and intermittent 
behaviour of renewable sources could prove to be highly dangerous, given the fact that the 
entire power system stability would be based on these. A very cautious approach in 
transforming the power system from fossil based to the green fuels based body is hence 
required.  
Moreover, the geographical location of Denmark and its own electricity demand profile 
makes it a typical place. In future, due to the ambitious aim of integrating the pan European 
electricity network with the Nordic network, for better interconnectivity and stronger grid, 
Denmark’s grid will have to handle a huge amount of power which will not be consumed 
here but it rather it will only be wheeled through its grid. As mentioned before a lot of wind 
power capacity is also to be incorporated in the Danish electricity grid which means a whole 
new infrastructure with new cables and associated power electronic devices is imminent.  It is 
also assumed in the studies conducted, that in near future, due to aesthetic reasons, all the 
overhead transmission lines will be dissembled and cables would be laid down for the desired 
connections. All the new connections are already done with cables. This transformation will 
hugely impact the supply and consumption of VArs in the system. The distribution grid on 
the other side is assumed to be of the same nature until a foreseeable amount of time. Hence, 
in any of the studies to be done, this factor can be assumed as constant.  
 
Tabel 1 - Snapshot of Danish Electricity Import/Export figures provided by Energinet in [3] 
==PAGE:11==
 
 
3 
 
1.2 
Technical Factors 
The generation pattern as mentioned before is set to be changed from a constant nature to a 
very intermittent and unpredictable nature. Apart from wind, the solar energy has made big 
progress in regards to its growth and applicability in the society. Further due to the high 
incentives provided by the government and ever dropping prices of the PVs, this resource can 
now be exploited in a much cheaper way. Nevertheless, the new generation forms are set to 
be a mixture of wind and solar energy. The electric system with such a mix calls for new and 
sophisticated methods for keeping it in a stable and secure state of operation. Due to the basic 
nature of the power generation, there will be needed a huge storage capacity in the grid to 
cater for the times when there is a sudden drop in generation due to sudden climactic changes 
and weather pattern.  
One of the major reasons why the new future grids might be even more prone to stability 
issues is the economic approach which is taken to make it a success story. While the 
incentives given to the generators and the BRPs will be able to take care of the system state 
during emergencies, the normal state of the system will be dragged to the limits because of 
the same reasons. Unlike the present practices, where most of the power present in the grid is 
taken care of by the bilateral agreements on the basis of long term mechanisms, the future 
power system will face a situation where the power quantum will mostly be dictated on the 
daily or monthly basis. This will make the system highly stressed. Distributed generation 
which will form the backbone of the future power systems, will inevitably lead us to a 
situation where the control of both active and reactive power flow to the point where it is 
needed the most will be utmost challenging. This means that the new controllers and control 
logic will be needed to each of such grids.  
1.3 Stability Issues in the Grid 
The stability issues in a power grid can lead to a system wide abnormal behaviour of 
components and cause a major disturbance or ultimately a black out. Hence, before these 
future power systems are fully implemented and being made functional it is very important to 
know and study scenarios to understand the real time operational conditions which will be 
faced in near future. On the basis of governmental plans and the upcoming wind and solar 
farms and their geographical locations, various cases with respect to different stabilities can 
be built and studied on simulation platforms. The results of such study cases, which will 
realistically represent the real time production-demand situation in the grid, the future system 
operators will be able to effectively implement the corrective measures and preventive 
protection schemes in the system to take care of the emergency situations.  
This report is prepared considering mainly wind power penetration in the power system due 
to its major contribution in terms of renewable energy integration over the last 2 decades. The 
various grid code requirements from operators in different countries regarding connection of 
wind farms in recent years have had a huge impact in shaping the turbine technologies and 
newer developments. These strict grid codes are utmost important as the level of penetration 
from wind has increased multi-fold which affects the system stability and performance 
because of intermittent nature of wind.  
==PAGE:12==
 
 
4 
 
1.4 Grid Code Requirements for a Wind Farm 
For the grid stability factors as mentioned above, different Grid Operators have framed 
different Grid codes for connection of Wind Farms to the existing power network depending 
upon the local network design and power flow scenarios. Most of these standard codes are 
pertaining the reactive power supply capabilities of such wind farms and their performance 
during fault conditions. Basically by stricter grid codes it is meant that the wind farms are 
required to behave more like conventional generators during fault conditions and static 
stressed conditions. This means that with increased share in the power markets, wind farms 
should be obliged to regulate and control power, frequency and voltages in a power system. 
These requirements call for better Fault Ride Through (FRT) capabilities of wind farms and 
that they can support the grid during disturbances. Following are the grid codes set by 
Energinet,dk for wind farms. 
By power control capability it is meant that the Wind Turbines should be able to behave like 
conventional generators and that they can participate in primary and secondary frequency 
control. Whereas in this report, Voltage, Small Signal and Transient stability cases are 
simulated and tested, the aspect frequency stability is being left out since the considered 
generic model WT4 model produces uncharacteristic spikes on PSS/E and these spikes are 
greatly amplified at a power below the rated power and hence the results would be largely 