==PAGE:1==
Sólveig Helga Gudjónsdóttir
Stability assessment of the impact of
wind integration in a weak isolated
system with a large share of
renewable energy sources
Master’s Thesis, June 2020
==PAGE:2==
Sólveig Helga Gudjónsdóttir
Stability assessment of the impact of
wind integration in a weak isolated
system with a large share of
renewable energy sources
Master’s thesis, June 2020
==PAGE:3==
Stability assessment of the impact of wind integration in a weak isolated system
with a large share of renewable energy sources
Author:
Sólveig Helga Gudjónsdóttir
Supervisor:
Hjörtur Jóhannsson, Senior Scientiﬁc Consultant, Department of Electrical Engineering,
DTU
External advisor from Landsnet:
Samuel Perkin, Specialist at Landsnet
Department of Electrical Engineering
Centre for Electric Power and Energy (CEE)
Technical University of Denmark
Elektrovej, Building 325
DK-2800 Kgs. Lyngby
Denmark
www.elektro.dtu.dk/cee
Tel: (+45) 45 25 35 00
Fax: (+45) 45 88 61 11
E-mail: cee@elektro.dtu.dk
Release date:
27.06.2020
Class:
1 (Public)
Edition:
1. edition
Comments:
This report is a part of the requirements to achieve MSc degree at
Technical University of Denmark. The report represents 30 ECTS
points.
Rights:
Sólveig Helga Gudjónsdóttir, 2020
==PAGE:4==
==PAGE:5==
PREFACE
This thesis was completed in partial fulﬁllment for acquiring an M.Sc (Eng.) degree in
Electrical Engineering with a specialization in Electric Energy Systems study from the
Electrical Engineering Department at the Technical University of Denmark (DTU).
Acknowledgments
Firstly, I would like to thank my supervisor Hjörtur Jóhannson, Senior Scientiﬁc Consultant
at DTU for his guidance on this thesis and interesting discussions on the topic. I would
also like to thank him for giving me the opportunity to work on a topic that I am really
interest in. I would like to thank Samuel Perkin Specialist at Landsnet, the Icelandic
TSO, for his advice, and discussions as well as giving comments on the thesis. Also for
helping me understand the Icelandic power system as well as its PSS/E model. His help
has been greatly appreciated and he was always willing to help through emails and online
meeting. Landsnet supplied the models and resources required for the project and to them,
I am grateful for the generosity. I also want to thank numerous employees at Landsnet
for oﬀering conversation, ideas and discussion about a Master’s thesis, which I really
appreciate. I also want to thank Brynjar Sævarsson for helping me with technical problems
regarding DTU’s system and PSS/E.
And I would like to thank my family and friends for their support during my studies.
Especially my boyfriend Arnar Sigurðsson who have been a enormous support through my
studies.
i
==PAGE:6==
ABSTRACT
This thesis investigates the impact of wind power integration into the Icelandic energy
system, with an emphasis on stability analysis. Due to the ever-increasing emissions
of greenhouse gases, the need to transition to more sustainable energy sources is more
apparent than ever. The electrical power system is transitioning to more renewable energy
sources, but to use them eﬀectively, it must compensate for their ﬂuctuating nature. The
integration of such sources can be challenging for weak isolated power systems such as in
Iceland. The country uses predominantly hydroelectric power but with climate change,
rapidly melting their glaciers, it may need to supplement the power system with other
sources. There is growing interest in wind power in Iceland, but due to the ﬂuctuating
winds it is necessary to investigate the potential impact on the already unstable system. In
the north-west, the electrical power system is quite unreliable and in need of more power.
The system is modeled using PSS/E model from Landsnet. A wind turbine is modeled in
Glerárskógar in the north-west in Iceland. Results shows that the ﬂuctuating nature of
wind power production could aﬀects the stability of the system as well as increasing the
power transfer between areas, which is a bottleneck in the system. An upgraded system
showed that it improved both the stability and the amount on feasible wind generation.
ii
==PAGE:7==
NOMENCLATURE
API
Application Program Interface
AVR
Automatic Voltage Regulators
CIGRE
International Council on Large Electric Systems
GUI
Graphical User Interface.
IEEE
Institute of Electrical and Electronics Engineers
IMO
The Icelandic Meteorological Oﬃce
KKS
Kraftwerk Kennzeichnen System (Identiﬁcation System for Power Plant)
RES
Renewable Energy Sources
TSO
Transmission System Operator
PSS
Power System Stabilizer
PSS/E
Power System Simulator for Engineering
WECC
Western Electricity Coordinating Council
WGMG
Wind Generator Modeling Group
WPP
Wind Power Plan
WTG
Wind Turbine Generator
iii
==PAGE:8==
TABLE OF CONTENTS
Preface
i
Abstract
ii
Nomenclature
iii
Table of Contents
iv
1
Introduction
1
1.1
Background . . . . . . . . . . . . . . . . . . . . . . . . . . . . . . . . . . . .
1
1.2
Formulation of the Problem . . . . . . . . . . . . . . . . . . . . . . . . . . .
1
1.3
Methodology, Scope and Conditions
. . . . . . . . . . . . . . . . . . . . . .
2
1.4
Readability . . . . . . . . . . . . . . . . . . . . . . . . . . . . . . . . . . . .
3
2
The Icelandic Power System
4
2.1
Introduction . . . . . . . . . . . . . . . . . . . . . . . . . . . . . . . . . . . .
4
2.2
System Description . . . . . . . . . . . . . . . . . . . . . . . . . . . . . . . .
6
2.3
System Identiﬁcation . . . . . . . . . . . . . . . . . . . . . . . . . . . . . . .
7
2.4
Stability Problems . . . . . . . . . . . . . . . . . . . . . . . . . . . . . . . .
7
2.5
System Protection
. . . . . . . . . . . . . . . . . . . . . . . . . . . . . . . .
9
2.6
System Upgrading
. . . . . . . . . . . . . . . . . . . . . . . . . . . . . . . .
10
2.7
Wind Power Production in Iceland . . . . . . . . . . . . . . . . . . . . . . .
11
2.8
Grid Code . . . . . . . . . . . . . . . . . . . . . . . . . . . . . . . . . . . . .
11
3
Theoretical Background
12
3.1
Power System Stability . . . . . . . . . . . . . . . . . . . . . . . . . . . . . .
12
3.2
Electrical Power System Simulation Theory . . . . . . . . . . . . . . . . . .
21
4
Power System Simulations in PSS/E
25
4.1
Introduction to PSS/E . . . . . . . . . . . . . . . . . . . . . . . . . . . . . .
25
4.2
PSS/E Model of the Icelandic Power System
. . . . . . . . . . . . . . . . .
27
5
Modelling
29
5.1
Generic Wind Turbine Generator Models
. . . . . . . . . . . . . . . . . . .
29
5.2
Power Flow Setup for Generic WT4 (Type 4) . . . . . . . . . . . . . . . . .
30
5.3
Dynamic Setup for Generic WT4 (Type 4) . . . . . . . . . . . . . . . . . . .
30
5.4
Aggregation of Wind Turbines
. . . . . . . . . . . . . . . . . . . . . . . . .
31
5.5
Redispatch
. . . . . . . . . . . . . . . . . . . . . . . . . . . . . . . . . . . .
32
5.6
Shunt compensator . . . . . . . . . . . . . . . . . . . . . . . . . . . . . . . .
33
6
Impact of wind variability
34
6.1
Relationship between wind speed and power output
. . . . . . . . . . . . .
34
6.2
Wind behaviour in Iceland . . . . . . . . . . . . . . . . . . . . . . . . . . . .
35
iv
==PAGE:9==
Table of Contents
6.3
Proposed Methods for Simulating Wind Alternations . . . . . . . . . . . . .
38
6.4
Modelling Constraints . . . . . . . . . . . . . . . . . . . . . . . . . . . . . .
38
7
Simulations
39
7.1
Introduction to Simulations . . . . . . . . . . . . . . . . . . . . . . . . . . .
39
7.2
Overview of Cases
. . . . . . . . . . . . . . . . . . . . . . . . . . . . . . . .
39
7.3
Original System . . . . . . . . . . . . . . . . . . . . . . . . . . . . . . . . . .
40
7.4
Upgraded System . . . . . . . . . . . . . . . . . . . . . . . . . . . . . . . . .
49
8
Conclusion
57
8.1
Results . . . . . . . . . . . . . . . . . . . . . . . . . . . . . . . . . . . . . . .
57
8.2
Perspectives . . . . . . . . . . . . . . . . . . . . . . . . . . . . . . . . . . . .
57
8.3
Future work . . . . . . . . . . . . . . . . . . . . . . . . . . . . . . . . . . . .
58
References
59
A Landsnet Assets
64
A.1 Substations . . . . . . . . . . . . . . . . . . . . . . . . . . . . . . . . . . . .
64
A.2 Transmssion lines . . . . . . . . . . . . . . . . . . . . . . . . . . . . . . . . .
65
B Wind Data Statistics
70
C Power Reference
72
C.1
Example of Power Reference . . . . . . . . . . . . . . . . . . . . . . . . . . .
72
v
==PAGE:10==
==PAGE:11==
1
INTRODUCTION
1.1
Background
Power production has been mostly based on fossil fuels since the era in industrialization.
As a consequence, climate change is threatening the ecosystem. Renewable energy sources
(RES), such as wind and solar, will be key in a low carbon future. In 2015, an agreement
was drafted to combat climate change. The aims listed were to keep the increase in global
average temperature below 2◦C compared to pre-industrial [1]. Current estimates claim
that up to 65% of the world’s energy would be needed to be from RES to meet the goals
of the Paris Agreement [2].
Therefore, countries must adapt to renewable energy production to combat climate change.
Currently hydroelectric, geothermal, solar- and wind energy technology are available but
not feasible everywhere around the world. One other factor to consider is that their eﬃcacy
can change due to climate change. One such example is Iceland, a small island in the
northern hemisphere which produces almost 100% of its energy from RES, mostly from
hydroelectric power (69,7%) and geothermal power (30,3%). Only 0.01% and 0.02% are
being produced by fuel and wind respectively [3].
Climate change can threaten the generation of hydroelectric power in Iceland in the future.
The glaciers are melting faster causing more runoﬀ. The rapid increase in melting has
already caused one glacier named Ok to shrink to the point where it is no longer classiﬁed
as a glacier [4], [5]. If the reservoir of the hydroelectric dam is not capable of containing all
the runoﬀ, it may result in the loss of potential energy. Case studies estimate that runoﬀ
will increase up until the year 2080, then the glaciers in Iceland could have shrunk to the
point that runoﬀwill decrease. By the year 2200, the glaciers could disappear altogether[6].
This will pose challenges for the future energy production of Iceland. In order to adapt to
the changing climate, new means for production other than hydro is needed. One viable
option would be wind energy. The geographic location and topology of Iceland makes it
rich in wind energy potential and could be one of the largest producers of wind energy in
Europe [7]. The TSO of Iceland (Landsnet hf.), is contemplating the possibility of adding
wind integration of 400MW in the coming years.
In the past years, the interest in installation of wind farms has increased and the demand
for energy increases steadily, while the production of energy has not increased enough [8],
which makes a good motivation of wind power production installation.
1.2
Formulation of the Problem
The Icelandic electrical power system is an isolated network. It has no interconnection to
import or export energy from other networks. Therefore, the load of the system has to be
1
==PAGE:12==
1. Introduction
met with the electrical generation of the system. Iceland’s transmission grid consists of two
main mesh grids; a 220kV grid in the south west and in the east, which is interconnected
with a fairly weak 132kV ring connection. The ring connection was ﬁnished around 30 years
ago and since then, no major upgrades have been carried out. It is the main bottleneck in
the system because of its limited capacity and limits the power transfer between areas.
Because of the ﬂuctuating power production, it’s estimated that the need for transfer
power between areas will increase signiﬁcantly. This calls for improvement of the system
where the ring connection is a bottleneck for the power transfer between areas.
The areas under consideration for the installation of wind farms in Iceland are diﬀerently
suited for the system, with regards to the strength of the grid and the transfer capacity
between areas, among other factors.
The installation of wind farms will pose challenges to the operation of the transmission
system due to the ﬂuctuating nature of wind power production as it is dependent on
weather.
In the west fjords, the system is quite unreliable and in need of more power [9]. Frequent
disruptions in the delivery of electricity causes problems for both domestic users and makes
it unfavorable for modern industry which is heavily reliant on stable delivery of electricity
[9]. For the future livability and economic development of the area, more robust and stable
delivery is essential for the area. This thesis investigates the possibility of using wind
energy for such purposes.
1.3
Methodology, Scope and Conditions
The goal of this project is to model a wind farm and analyse its impact, located at
Glerárskógar in the west fjords, shown in Figure 1.1. After installing a wind turbine,
grid strengthening is generated to evaluate how it improves the feasibility of wind power
integration. The main project objectives are listed as follows:
• Model a wind power plant in PSS/E (Power System Simulator for Engineering) to
investigate the impact of wind integration.
• Conﬁgure Python scripts that use API to run a power ﬂow and dynamic simulation
in PSS/E.
• Find an estimation on much wind integration is feasible in the area.
• Strengthen the grid to help with the wind integration.
• Compare the stability assessment of original case and the grid strengthening scenario.
• Address the bottlenecks and weakness of the system before and after grid
strengthening results.
• Address the impact the wind integration has on the power transfer in the grid.
• Simulate an ﬂuctuation in wind to analyse the impact of ﬂuctuating nature of wind
production.
2
==PAGE:13==
1. Introduction
Figure 1.1. The Icelandic transmission grid and the location of Glerárskógar marked in red [10].
1.4
Readability
1. Chapter 1: The chapter outlines the Project background and problem statement
2. Chapter 2: The chapter outlines the state of the art of wind energy in Iceland and
describes the Icelandic power system.
3. Chapter 3: The chapter provides an introduction to the theoretical background to
stability analysis and simulations.
4. Chapter 4: The chapter describes power system simulations using PSS/E
5. Chapter 5: The chapter describes the elements to be modeled and how they are
treated.
6. Chapter 6: The chapter describes the modeling of wind variation and modeling
constraints of the procedure.
7. Chapter 7:
This chapter contains the results from the modeling diﬀerent of
conditions on how a wind farm may impact the electrical grid in the west of Iceland.
8. Chapter 8: This chapter discusses the results from modeling and what the impact
is from the wind farm modeling along with perspectives and potential future work.
3
==PAGE:14==
2
THE ICELANDIC POWER SYSTEM
This chapter introduces the Icelandic electrical power system. The characteristics, stability,
and limitations are described.
2.1
Introduction
The TSO in Iceland is responsible for the Icelandic electrical power transmission system. It
includes all bulk transmission lines and all main substations. The TSO connects electrical
power production to distributors and power-intensive users [11].
The Icelandic population accounted for roughly 350 thousand inhabitants in 2019. 62% of
the population lives in the capital region (Reykjavík), other sparsely along the coastline
[12]. This requires long transmission lines, where the total length is 3.343 km, equivalent
distance from Reykjavik to Rome [11].
The total installed power capacity in 2018 was 2927MW. The percent share of total
electricity generation is shown in Figure 2.1. It is made up of 69,7% hydroelectric power,
30,3% geothermal power and only 0,02% wind power and 0,01% fuel [3]. The usage of fuel
Hydro 
 (69,7 %) 
Geothermal 
(30,3%)  
Fuel (0,01%) 
Wind (0,02%) 
Figure 2.1. Percent share of total electricity generation in Iceland 2018 [3].
is only used consistently is two islands; Grímsey and Flatey [13]. Alternatively, fossil fuel
is used for backup generators in case of transmission malfunction due to storms or other
outages [11].
Hydroelectric power depends on the water reservoir level. If the reservoirs are low it is
often needed to transfer power between east and west. In such a case, it causes a heavy
power transfer through the weak 132kV ring connection, which is a major bottleneck for
power transfer between areas.
4
==PAGE:15==
2. The Icelandic Power System
The main drawback of geothermal power production is that is does not participate in the
frequency control. It is power regulated where the output power is kept constant according
to a set-point. Only in severe disturbance, geothermal power plants contribute in frequency
regulation by switching to governor control, but they are slow in switching. Therefore,
hydro power plants are the prime frequency regulators and they have very good frequency
regulation system [14], [15].
The main consumption is by heavy industry, making up 77% of the energy consumption.
Around 18% of the energy is used by households and general use, and 2% are used by the
power plants themselves as shown in Figure 2.2. The other 3% are lost to transmission
and distribution throughout the network.
2,0 1,1 2,0 77,0 
Indrustry 
77% 
General use 
18% 
Transmisson 
losses 
2% 
Power plant 
own use 
2% 
Distibution 
losses 
1% 
Figure 2.2. Percent share of energy consumption in Iceland 2018 [3].
The energy demand in the past years has grown substantially and current estimates predict
that the demand will only increase in the future. Currently, the greatest demand is from
heavy industry as seen in Figure 2.3, but it is expected that the demand will increase in
the coming years. Mostly from service sectors and industry. This is a cause for concern, as
previously stated in the thesis, the main part of the grid, the ring connection has largely
remained unchanged since built. Therefore, it is important to meet the changes in demand
with variable power sources and upgrades to the Icelandic system [11], [16], [8].
One of the operational challenges in the Icelandic power system in low inertia, which
has a major inﬂuence on frequency stability [14]. Frequency stability is introduced in
subsection 3.1.2.
5
==PAGE:16==
2. The Icelandic Power System
0
5000
10000
15000
20000
25000
1990
1991
1992
1993
1994
1995
1996
1997
1998
1999
2000
2001
2002
2003
2004
2005
2006
2007
2008
2009
2010
2011
2012
2013
2014
2015
2016
2017
2018
kWh 
Year 
General use
Industry:total
Total Electricity used
Total production
Figure 2.3. Energy evolution in the Icelandic power system [17].
2.2
System Description
The transmission system is operated on 66 kV or higher, as well as few 33kv transmission
lines for the regional system. The highest operation voltage is 220kV, a few of them
are build for 400 kV. That gives the option to increase the operation voltage when more
transmission capacity is needed [11].
There are two strong 220 kv systems, one located in the south-west and one in the east on
Iceland. They are interconnected with a weaker 132 kV ring connection.
The main bottleneck in the Icelandic network is the ring connection, because it is heavily
loaded and therefore it limits the power transfer between the west and east.
The transmission system is shown in Figure 2.4.
6
==PAGE:17==
2. The Icelandic Power System
Figure 2.4. The Icelandic transmission system [10].
2.3
System Identiﬁcation
In this thesis, the KKS codes (g: Kraftwerk Kennzeichnen System, e: Identiﬁcation
Systems for Power Plant) will be used to simplify the identiﬁcation of TSO assets, i.e the
transmission system. [18]
The Icelandic names of assets will be shown with the corresponding KKS code and
afterwards only the KKS code will be used for said asset. For further information, the
TSO list of assets can be found in the Appendix under the identiﬁcation of assets.
2.4
Stability Problems
The Icelandic transmission grid is heavily loaded, especially the 132 kV ring connection
which was built in 1987. The demand for energy is steadily increasing and the grid is in
need of improvements as stability is becoming an increasing concern [19].
In 2019, the grid experienced 63 disturbances and 80 malfunctions, 32 of those caused a
need for 2071 MWh to be produced with backup generators. Whereas in 2018 the grid
experienced 56 disturbances and 65 malfunctions, causing 18 disturbances requiring 404
MWh to be produced with backup power [20].
The system also experiences disturbances related to weather. For example, a major reason
for the increase in stability issues in 2019 was due to a heavy storm in December, where
the grid experienced 27 disturbances where the average for the last 10 years was 11,2.
Weather-related disturbances account for approximately 50% of total disturbances since
2010. Therefore, the stability of the system often depends on the weather and in combination
to its age, only exacerbates the problem [21].
7
==PAGE:18==
2. The Icelandic Power System
2.4.1
Cuts
The main system is divided into cuts shown in Figure 2.5. The cuts are used to deﬁne and
monitor the system are based on the thermal transfer rates, load capacity and stability
limits. The cuts are monitored for power ﬂow to prevent overload, power ﬂuctuation and
low frequency [22], which can lead to instability and even blackout.
Figure 2.5. Cuts in the Icelandic Transmission System [10].
Due to the location of the wind farm proposed in this thesis, it is out of interest to examine
CutIIIb and CutIV, which will be explained further.
Cut IIIb
Cut IIIb is the active power sum of Fljótsdalslína 2 (FL2) and Blöndulína 1 (BL1). The
active power ﬂow through CutIIIb is a measurement of the active power transfer from
the east to west of Iceland. The amount of ﬂow in this cut is dependent on the water
reservoirs in Kárahnjúkar (KAR). If the water reservoirs at KAR are good, the power ﬂow
through CutIIIb is above 100MW. In that case, the generators are used to produce as
much as possible and export power to the west for saving water in reservoirs. This happens
in the beginning of summer when the show is melting from the highlands into the KAR
reservoirs. FL2 lies over a mountain and failures on the line can be due to icing conditions
on the mountain. BL1 is relativity short and there are not often faults there [14]. It limits
the power ﬂow from stations at Fljótdsdalur (FLJ), Kraﬂla (KRA), Þeistareykir (THR)
and Blanda (BLA) through the ring connection to the west. The deﬁned stability limit of
CutIIIb is 130MW [11].
8
==PAGE:19==
2. The Icelandic Power System
Cut IV
Cut IV is the active power sum of Sigöldulína 4 (SI4) and Blöndulína 2 (BL2). The active
power ﬂow through CutVI is a measurement on the active power transfer from west to
east of Iceland. The ﬂow is dependent mainly on three factors: reservoirs at KAR, the
load demand from ﬁsh smelter and maintenance of generators in KAR. If the active power
ﬂow is above 100MW, then one ore more of these factors could be the reason for such high
ﬂow to the east [14]. The deﬁned stability limit of Cut IV is 100MW [11].
If one of the two lines which deﬁne each cut fails, or is out of service due to maintenance,
then at an instance, all the power ﬂow on that cut will move onto the other line that
deﬁnes the cut. Hence, there must always be suﬃcient capacity on that line to receive that
power. If not, then the line becomes overloaded which may trigger a protection scheme or
instability of the system [11].
There are few things that need to be fulﬁlled to ensure secure operation, system stability
and security of supply. These are [23], [14]:
1. Power ﬂow through individual units in the system is not exceeding the transmission
capacity of the unit.
2. The voltage at supply points in the system has to be within limits.
3. Power ﬂow through deﬁned cuts must not exceed deﬁned limits to ensure system
stability.
2.5
System Protection
System protection has the aim to isolate a fault to prevent damage or even blackout of
the system. Protection units are spread around the country to monitor power ﬂow, power
oscillations, under frequency among other values and if they detect an abnormality, they
send a signal to protection equipment to isolate the fault. If the cuts exceed their stability
limits, the protection units can cause the system to split into two operating island (east
and west) to prevent power oscillations on the ring connection.
The splitting of the system can help the system to re-balance after a signiﬁcant disturbance.
However, splitting of the system reduced the inertia of the system which has a negative
eﬀect on the frequency stability of the system. A common split of the system is illustrated
in Figure 2.6.
9
==PAGE:20==
2. The Icelandic Power System
Figure 2.6. Splitting of the system into two island [10].
2.6
System Upgrading
Landsnet approaches a possible future options to upgrading the ring connection in their
Annual System Plan. The options proposed is shown in Figure 2.7. These options will be
under considerations when the system is upgraded in this thesis.
B option – Ring connection 
New 220kV lines 
220kV reconstructions 
on the 132kV ring 
Figure 2.7. Landsnet proposal: B options - Ring connections [24].
10
==PAGE:21==
2. The Icelandic Power System
2.7
Wind Power Production in Iceland
As previously stated, there is interest in the installation of wind turbines for electricity
generation widely across Iceland and has grown in the past years. The total interest of about
a few hundreds of megawatts power production. The areas that are under consideration
are diﬀerently suited for the electrical grid, with regards to the size of the wind production,
transfer capacity from the area, voltage quality and other factors.
Integration of wind production of such capacity comes with new challenges to the operation
of the electrical system due to the ﬂuctuating nature of wind power. The operation of
geothermal- and hydroelectric plants will have to change to account for the ﬂuctuating
changes in production of wind power.
Due to the ﬂuctuation of the wind power production, it can be estimated that the need
for energy transfer between regions will increase. The increase in energy transfer calls
for improvements of the energy grid, primarily elimination of existing bottlenecks (cuts)
that constrain the power transfer between areas. Therefore, the connection possibilities of
wind power production to the grid are diﬀerent between areas. The grid can not, without
changes, receive this new wind power production anywhere. A comprehensive assessment
needs to be made for how much wind power is feasible for the transmission grid.
The integration of wind power is directly a part of the Green plan of the TSO [11]. There
are three scenarios that the TSO is currently assessing, that involves a total of 400MW
power generation:
1. One 400 MW wind farm in the Western part of the island.
2. Two 200 MW wind farms, one in the West and one in the south of the island.
3. Four 100 MW wind farm, one in each section, West, North, East and South of the
Island.
2.8
Grid Code
The transmission system is required to fulﬁll the requirements of regulation 1048/2004
about electricity quality and security of supply. The aim of the regulation is to ensure as
far as possible, suﬃcient quality and security of supply in the Icelandic electricity system
[25] .
Under this regulation the delivery voltage must be within ±10% but for heavy industry the
criteria is more stringent. The TSO has deﬁned the limits as −9% and +5% for assessing
voltage quality of the 220kV system. Frequency tolerance decided by the TSO for each
month should be 99.5% of frequency measurements and be within 50Hz ± 0.2Hz for 10
second average. Measurements by the TSO have shown that in some cases the values
exceed the limits designated by the regulation but they are caused by lack of voltage,
caused by malfunctions or maintenance [26].
11
==PAGE:22==
3
THEORETICAL BACKGROUND
This chapter provides on overview of basic concepts and deﬁnition related to power system
stability and electrical power system theory.
3.1
Power System Stability
Stability refers to a condition where there is an equilibrium between opposing forces. Power
system stability is essential for operation of power system and satisfactory design of power
system. In a report developed jointly by the CIGRE and IEEE [27], power system stability
is deﬁned as:
Power system stability is the ability of an electric power system, for a given
initial operating condition, to regain a state of operating equilibrium after being
subjected to a physical disturbance, with most system variables bounded so that
practically the entire system remains intact.
Overall picture of classiﬁcation of power system stability is given in Figure 3.1. The
classiﬁcation is divided into three main categories:
• Rotor Angle Stability, described in subsection 3.1.1.
• Frequency Stability, described in subsection 3.1.2.
• Voltage Stability, described in subsection 3.1.3.
Power System Stability
Rotor Angle
Stability
Frequency
Stability
Voltage
Stability
Small-
Disturbance
Angle Stability
Transient
Stability
Large-
Disturbance
Voltage Stability
Small-
Disturbance
Voltage Stability
Short Term
Short Term
Long Term
Short Term
Long Term
Figure 3.1. Classiﬁcation of power system stability [27].
12
==PAGE:23==
3. Theoretical Background
3.1.1
Rotor Angle stability
Rotor angle stability is the ability of synchronous machines of an interconnected power
system to maintain synchronism and remain in synchronism after being subjected to a
disturbance. This refers to one or more synchronous machines. A disturbance could be for
example loss of generation or load unit or loss of transmission line. Rotor angle stability
also depends on the ability to maintain/restore equilibrium between electromagnetic torque