==PAGE:1==
Using Real-Time Stability Assessment for Corrective
and Stabilizing Control of the Power Transmission
System
Bergrós Fríða Jónasdóttir & Mikkel Bay Andreasen
Master Thesis
DTU Electrical Engineering
==PAGE:2==
==PAGE:3==
Approval
This thesis was prepared at the Centre for Electric Technology, Department of Electrical
Engineering, the Technical University of Denmark in partial fulfillment for the degree
Master of Science in Engineering, MSc Eng.
Bergrós Fríða Jónasdóttir - s202043
Signature
Date
Mikkel Bay Andreasen - s203186
Signature
Date
Real-Time Stability Assessment for Corrective and Stabilizing Control of the Power System
3
==PAGE:4==
Abstract
In an attempt to create new methods to dynamically analyse the power system, [1] devel-
oped a method to assess a generators’ aperiodic small signal rotor angle stability (ASSRAS)
in real-time, using analytical methods. This thesis applies the ASSRAS methodology to
assess the aperiodic rotor angle stability for two cases of voltage collapse. The search for
ASSRA unstable cases was narrowed down using the TESCA contingency analysis.
Building upon the previously developed SOSPO SW-platform [2], real-time PMU measure-
ments were emulated using dynamic simulations in PSS/E. The ASSRAS margins were
calculated from the measurements and published back to the platform, where assessment
and visualization methods could be accessed agent-wise.
Using Thevenin-equivalent circuit theory, generator-wise distances to instability with re-
gards to active power injection were derived and visualized within the impedance plane.
In addition to this the active power margins and over excitation limiter statuses of the gen-
erators were also visualized. Ultimately, this could inform system operators of operation
close to ASSRA instability in real-time.
A remedial action against ASSRA instability was developed using optimal power flow
(OPF). The OPF is convexified using semi-definite programming (SDP) to locate the
global optimum. The SDP-OPF is used in combination with an ASSRAS constraint to
compute the optimal re-dispatch, to ensure ASSRA stability of the system. The SDP-OPF
developed was validated against known implementations in Matlab and verified using load
flow calculations in both PSS/E and Matlab.
The results obtained throughout the thesis serve as a proof of concept for a stability con-
strained optimal power flow (SCOPF). The project successfully redistributed the generator
set-points, ultimately resulting in a steady-state operation of a power system.
4
Real-Time Stability Assessment for Corrective and Stabilizing Control of the Power System
==PAGE:5==
Acknowledgements
First and foremost we would like to thank our supervisor Hjörtur Jóhannsson, for leading
us through the thesis procees and providing valueable insights into the world of stability
studies.
Our deepest gratitude goes out to our co-supervisor Brynjar Sævarsson, who assisted us in
getting familiarized with the SOSPO-environment as well as the existing Python modules.
Thank you for always coming to our aid when we needed it.
A special thanks to Samuel Chevalier for providing us with consultation during the devel-
opment process of the optimization and keeping our spirits high during the final stretch.
Last but not least, we want to say thank you to our families, parents, and numerous friends
who endured this long process with us, always offering their support, love and affection.
Real-Time Stability Assessment for Corrective and Stabilizing Control of the Power System
5
==PAGE:6==
Contents
Preface
. . . . . . . . . . . . . . . . . . . . . . . . . . . . . . . . . . . . . . . . .
3
Abstract . . . . . . . . . . . . . . . . . . . . . . . . . . . . . . . . . . . . . . . . .
4
1
Introduction
8
1.1
Background . . . . . . . . . . . . . . . . . . . . . . . . . . . . . . . . . . . .
8
1.2
Problem Statement . . . . . . . . . . . . . . . . . . . . . . . . . . . . . . . .
9
1.3
Thesis Overview
. . . . . . . . . . . . . . . . . . . . . . . . . . . . . . . . .
10
2
Aperiodic Rotor Angle Stability in Power Systems
11
2.1
Power System Stability . . . . . . . . . . . . . . . . . . . . . . . . . . . . . .
11
2.2
Aperiodic Small Signal Rotor Angle Stability (ASSRAS) . . . . . . . . . . .
11
2.3
The ASSRAS Method . . . . . . . . . . . . . . . . . . . . . . . . . . . . . .
12
2.4
Voltage Stability, the PQV-Surface and PV-Curves . . . . . . . . . . . . . .
14
3
System Information
16
3.1
Choosing Test Systems . . . . . . . . . . . . . . . . . . . . . . . . . . . . . .
16
3.2
IEEE 9-Bus System
. . . . . . . . . . . . . . . . . . . . . . . . . . . . . . .
16
3.3
The Nordic32 System
. . . . . . . . . . . . . . . . . . . . . . . . . . . . . .
17
3.4
PSS/E Modelling . . . . . . . . . . . . . . . . . . . . . . . . . . . . . . . . .
20
4
Case Selection
21
4.1
Case Criteria . . . . . . . . . . . . . . . . . . . . . . . . . . . . . . . . . . .
21
4.2
TESCA methodology . . . . . . . . . . . . . . . . . . . . . . . . . . . . . . .
21
4.3
Selection Process . . . . . . . . . . . . . . . . . . . . . . . . . . . . . . . . .
22
4.4
Chosen Cases . . . . . . . . . . . . . . . . . . . . . . . . . . . . . . . . . . .
24
5
The SOSPO Environment
26
5.1
Reasoning behind environment
. . . . . . . . . . . . . . . . . . . . . . . . .
26
5.2
WA-Control Framework . . . . . . . . . . . . . . . . . . . . . . . . . . . . .
26
5.3
Existing Modules and Methods . . . . . . . . . . . . . . . . . . . . . . . . .
28
5.4
Additional Modules Developed and Changes to Existing Ones . . . . . . . .
30
6
Visualization of ASSRAS Instabilities
35
6.1
ASSRAS Asessment of a Single Generator . . . . . . . . . . . . . . . . . . .
35
6.2
Visualizing Multiple Generators . . . . . . . . . . . . . . . . . . . . . . . . .
36
6.3
ASSRAS Visualization . . . . . . . . . . . . . . . . . . . . . . . . . . . . . .
37
6.4
Margins Visualization
. . . . . . . . . . . . . . . . . . . . . . . . . . . . . .
41
7
Optimizing ASSRAS
43
7.1
Optimal Power Flow . . . . . . . . . . . . . . . . . . . . . . . . . . . . . . .
43
7.2
SDP Relaxation of OPF . . . . . . . . . . . . . . . . . . . . . . . . . . . . .
44
7.3
Validation of SDP Optimization results
. . . . . . . . . . . . . . . . . . . .
45
7.4
Stability Constrained Optimal Power Flow (SCOPF) . . . . . . . . . . . . .
49
7.5
Objective Function of SCOPF . . . . . . . . . . . . . . . . . . . . . . . . . .
52
8
Implementing SCOPF on the Nordic32 System
54
8.1
Proposed methodology . . . . . . . . . . . . . . . . . . . . . . . . . . . . . .
54
8.2
The actual implementation
. . . . . . . . . . . . . . . . . . . . . . . . . . .
54
6
Real-Time Stability Assessment for Corrective and Stabilizing Control of the Power System
==PAGE:7==
8.3
Case Studies
. . . . . . . . . . . . . . . . . . . . . . . . . . . . . . . . . . .
54
8.4
Comparison of the L1-norm Objective at Full and Reduced Load . . . . . .
57
8.5
Constructing the Ybus in MATLAB . . . . . . . . . . . . . . . . . . . . . . .
60
8.6
Verifying SDP-OPF Results in Matlab and PSS/E . . . . . . . . . . . . . .
61
8.7
Dynamic Simulations with the Corrected Ybus . . . . . . . . . . . . . . . . .
66
8.8
Analysis of Rank Condition . . . . . . . . . . . . . . . . . . . . . . . . . . .
67
9
Discussion
69
10 Conclusion
71
11 Future Work
73
Bibliography
74
A Line Loading
77
A.1 Base Case Line Loading . . . . . . . . . . . . . . . . . . . . . . . . . . . . .
77
B Optimization Parameters
79
Real-Time Stability Assessment for Corrective and Stabilizing Control of the Power System
7
==PAGE:8==
1
Introduction
The share of renewable generation is increasing on a worldwide basis, adding more stochas-
tic elements to the planned power grid operation. The fluctuating nature of wind and solar
energy will decrease the robustness of current power systems, which will be further lowered
as larger inertial plants are phased out.
In the past, offline diagnosis has ensured a stable and reliable operation of the power
grid, but the uncertainty that comes with renewable energy will continuously increase
the computational efforts needed to perform contingency analysis and state estimations,
respectively. Therefore, the importance of defining methods for quickly and accurately
assessing the power grid stability has increased, because previously used methods are
simply not fast enough. These new assessment methods should aid system operators in
real-time monitoring of the power grid and in implementing preventive control, ensuring
the grid stability.
The control center’s responsibility can be boiled down to three main tasks: Monitoring,
analysis and control.
Traditionally, monitoring and analysis is performed using state
estimation and contingency assessment via steady state power flow and local measurements.
The protection and control for a previously undefined contingency is based on the power
system operators’ speed of reaction [3]. In some cases, by the time it takes them to process
the situation, come up with a possible solution, and implement it, it is already too late.
Previously, the lack of computational power and insuﬀicient power system measurement
data has made automatic real-time control of power systems an infeasible solution. How-
ever, with the large-scale implementation of Phasor Measurement Units (PMUs) and de-
velopments in fast assessment methods, real-time wide-area monitoring and control is
becoming a real opportunity [4], [3]. Combining the traditional methods with dynamic
look-ahead simulations as well as automatic reaction to contingencies would fortify the
power system against the ever changing nature of renewable energy sources.
1.1
Background
In an attempt to create new methods to dynamically analyse the power system, [1] devel-
oped a method to assess a generators’ aperiodic small signal rotor angle stability (ASSRAS)
in real time, using analytical methods. This particular stability mechanism is thought to
have been one of the links in the chain of events leading to the 2003 blackout in Den-
mark and southern Sweden [4]. There, the heavily loaded system experienced a number
of contingencies, pushing its generators to their limits, and eventually past them, causing
a system wide voltage collapse and causing millions of people to be without electricity.
Simulations of this event show that the voltage collapse could have been detected via
dynamic simulation and even avoided by redistributing only around 7.6 MW [4].
The ASSRAS method was included in both the SOSPO and SARP initiative, which aimed
to address problems related to future power system operation as well as furthering along
the technology needed for said challenges. One of the results of these projects was the
SOSPO Software Platform (SW-Platform), intended for development and testing of new
methods. The SW-Platform offers the option of using any preferred programming lan-
guage and the ability to upload test systems, along with supporting software in the loop
functionality. Furthermore, multiple agents can subscribe and interact on the platform
[2].
8
Real-Time Stability Assessment for Corrective and Stabilizing Control of the Power System
==PAGE:9==
Several papers and articles have used the ASSRAS method to detect instability ([1], [5])
and avoid it by implementing a remedial action ([4], [6], [7]). However, only only [8] tried
using optimal power flow to redistribute the active power for a 11-bus system.
1.2
Problem Statement
Building upon the previous work of [1] and the SOSPO and SARP projects [2], the aim
of this thesis is to implement a real-time stability assessment on the transmission level of
a power system, along with designing a corrective and stabilizing controlling action. The
assessment method used, Wide-Area Assessment of ASSRAS in Real-Time [5], provides
the ability of early warning and early prevention of a system voltage collapse caused by
aperiodic rotor angle instabilities.
Using the Nordic32 power system model, several contingencies leading to a system voltage
collapse will be modelled in PSS/E and simulated dynamically. Using these simulations,
Phasor Measurement Unit (PMU) data are synthesized, simulating real-time measure-
ments. Once the PMU data have been obtained, the wide-area software platform is used
to create a stream of PMU snapshots, emulating real-time power system measurement data.
On this same platform, several applications will be created in Python. This includes an
implementation of the assessment method and applications to visualize and analyze the
ASSRA stability of the power system. Finally, a remedial action incorporating optimal
power flow (OPF) will be designed and tested.
The main learning objectives of this thesis are as follows:
• Describe and understand the SOSPO SW-Platfrom
• Design assessment methods building upon functionalities of the SOSPO SW-platform.
– Implement the ASSRAS methodology to evaluate aperiodic rotor angle stability
of generators.
– Visualize and evaluate ASSRAS assessment of multiple generators on the injec-
tion impedance-plane.
– Visualize and evaluate active power- and over excitation limiter margins
• Understanding the chain of events leading to ASSRA instability and identifying
critical generators according to active power margins
• Applying and evaluating the TESCA methodology to determine contingencies lead-
ing to ASSRA instability.
• Simulate contingencies in PSS/E to generate ASSRA unstable cases
• Implementing ASSRA unstable cases on the SOSPO SW-platform to generate streams
of PMU measurements
• Implement SDP-OPF on modified IEEE 9 bus and validate results
• Design ASSRAS assessment constraint, which can be utilized within the SDP-OPF
formulation.
• Analyse and verify functionality of the ASSRAS constraint to shift generators oper-
ating points on modified IEEE 9-bus network.
• Implement SDP-OPF on the Nordic32 system in steady state and verify results
Real-Time Stability Assessment for Corrective and Stabilizing Control of the Power System
9
==PAGE:10==
• Analyse and verify functionality of the ASSRAS constraint to shift generators oper-
ating points on Nordic32-network.
• Utilize the SDP-OPF in combination with the assessment method to detect and
avoid ASSRA instabilities within the generated cases.
• Apply remedial action from SDP-OPF results in PSS/E and verify.
1.3
Thesis Overview
Since the project scope spans fairly wide, the following chapter is meant to give a short
overview over the specific topic of each chapter of the thesis.
In chapter 2 the fundamental problem being tackled by the thesis, the aperiodic rotor
angle instability phenomenon, is introduced and discussed in relation to other instability
mechanisms. A foundation is laid for the ASSRAS method and a short overview of the
PQV-surface and PV-curves is given. In chapter 3, a description of the test systems used
within the thesis is given along with a visual representations of them and the most relevant
system information with regards to the ASSRAS study.
Next, in chapter 4, the process of finding an ASSRA unstable scenario is described. This
includes a detailing of the TESCA method and the selection process that ensued. Two
cases are presented, along with the chain of events leading up to to the voltage collapse
and consequent loss of synchronism. Chapter 5 goes into detail about the SOSPO Software
Platform (SW-Platform) and the structure of snapshots streaming to and from the server.
Some light is shed on the functionality of the python applications developed and how
multiple agents can access and contribute to the snapshot server.
The derivation of the ASSRA stability boundary for multiple operating points is described
in chapter 6, which also contains information about the Active Power and OEL Margins
visualization developed. chapter 7 introduces the optimal power flow, describes the process
of developing a working SDP-OPF and formulates a stability constraint with regards to
ASSRAS.
Finally, in chapter 8, the SDP-OPF is tested on the Nordic32 system for a steady-state
scenario.
Multiple objective functions are tested and the results then analysed using
PSS/E and MATPOWER.
10
Real-Time Stability Assessment for Corrective and Stabilizing Control of the Power System
==PAGE:11==
2
Aperiodic Rotor Angle Stability in
Power Systems
2.1
Power System Stability
Ever since the formation of the first electricity grids, power system stability has been, and
continues to be, an immensely important and relevant topic within the field of electrical
engineering. Despite the extent of the subject, the authors of [9] manage to define it rather
neatly with only a few sentences:
”Power system stability is the ability of an electric power system, for a given
initial operating condition, to regain a state of operating equilibrium after
being subjected to a physical disturbance, with most system variables bounded
so that practically the entire system remains intact.” [9, p. 1388]
It is important to note that this definition applies to the system as a whole. A single
generator might lose synchronism without risking the stability of the rest of the power
system [9].
Figure 2.1: Power system stability as classified in [9] and [10].
These physical disturbances referenced manifest as for example line or generator outages,
and a single outage can cause a cascading effect in a power system. As a consequence,
multiple instability mechanisms may arise endangering the system. In order to ease and
coordinate analysis of power system stability, the authors of [9] and [10] have classified the
three main instability mechanisms as seen in Figure 2.1. The principal focus of this thesis
will be on aperiodic rotor angle stability, which falls under the category of angle stability
in Figure 2.1, further discussed in section 2.2. Of course, fully de-coupling the instability
mechanisms described in Figure 2.1 is easier said than done, and system frequency is
directly correlated to the rotor angle speed of each generator. However, in order to keep
the thesis concise, frequency stability as it is defined in Figure 2.1 is considered to be
outside of the scope of the thesis.
2.2
Aperiodic Small Signal Rotor Angle Stability
(ASSRAS)
When there is a lack of balance between the electrical and mechanical torque of a syn-
chronous machine, the machine must increase or decrease its power injection to match
Real-Time Stability Assessment for Corrective and Stabilizing Control of the Power System
11
==PAGE:12==
the demand of the system. Should the machine need to increase the injection, the rotor
angle δ of the machine is increased and a new equilibrium point must be reached. An
aperiodic rotor angle instability is thus caused by a machine’s lack of steady-state syn-
chronizing torque, where a further increase of δ only causes a decrease in power output
[5], [9]. This mechanism essentially creates a negative feedback loop, causing the machine
to lose synchronism and it can be visualized for individual generators using Pδ-curves.
0
25
50
75
100
125
150
175
Rotor Angle δ
[°]
0.0
0.1
0.2
0.3
0.4
0.5
0.6
0.7
0.8
Active Power [pu]
P-δ Curves
Active Power Set-Point
OP Pre-F
ault
Pre-F
ault Condition
Post-F
ault Condition
T
rajectory of OP Post-F
ault
Figure 2.2: The generator cannot reach the active power set-point after a fault, and δ
increases.
In Figure 2.2, an example is given of a generator’s active power output before and after a
fault. Before the fault, the generator’s active power capabilities intersect with the active
power set-point, which is where the operating point (OP in Figure 2.2) then settles in
equilibrium. After the fault, the generator’s capability for active power injection has de-
creased (for example due to a line outage) and the generator tries to find a new equilibrium
satisfying the active power set-point. The rotor angle δ is increased past the maximum
power output and the output starts to decrease again.
2.3
The ASSRAS Method
In [1], the author presented a method which can assess a generator’s stability with regards
to ASSRAS by using the generator’s injection impedance Zinj as well as the Thevenin
impedance ZTH of the system, as seen from the node of injection. The method has since
been further tested and developed in multiple papers, with the end goal of incorporating it
into real-time observation and control of future power systems ([5], [7], [6] and [11]). The
ASSRAS method requires that a high number of PMUs be present in the monitored power
system, which most TSOs are already implementing. The ASSRAS assessment method
is valid when the observed system is considered to be in QSS. Therefore, the following
assumptions must hold in order to obtain accurate results [5]:
• The node of active power injection has a constant voltage magnitude.
– This node can either be at the machine terminal (automatic excitation) or be-
hind the saturated direct axis reactance Xd (manual excitation/over excitation
limter has been activated).
• Loads are modelled as constant impedance.
12
Real-Time Stability Assessment for Corrective and Stabilizing Control of the Power System
==PAGE:13==
– The instantaneous impedance values seen from the generators are used, since
the method is evaluating the instantaneous operating conditions.
– For constant impedance loads, the active and reactive power vary with the
square of the voltage magnitude [12].
– Long term dynamics for the load are omitted.
2.3.1
Maximum Active Power Contribution of a Generator
The following derivation is based on [5]. For the small grid in Figure 2.3, the generators
maintain a constant terminal voltage magnitude ( ¯V1, ¯V2 and ¯V3) and the loads are rep-
resented by constant impedances as mentioned above. Using the terminal voltages along
with the known system impedances, the power system’s state of operation can be found.
Knowing that the terminal voltage magnitudes are all fixed, only the voltage angle δ influ-
ences the active power injection of the generators. Consequently, for G1 it is the voltage
angle δ1 which decides the maximum power contribution of said generator.
Figure 2.3: A small grid with three generators, two loads and five voltage nodes. The
rectangles represent impedances.
Using the superposition principle, the current contribution from G1 when δ1 is subjected
to a change of ∆δ can be described with (2.1). The current consists of two components,
¯IG1,SC, which is the contribution from G1 when all other generators are short circuited,
and PN
i=2 ¯IGi,SC, which is the contribution from the other generators of the system when
G1 is short circuited. In (2.1) and (2.2), N = 3 and it represents the number of generators
power system.
¯IG1 = ¯IG1,SC +
N
X
i=2
¯IGi,SC
(2.1)
For G1, the apparent power ¯SG1 can be represented with (2.2). Notably the first term
of the summation, ¯VG ¯I∗
G1,SC, does not contribute to a change in the active power as the
relative angle between ¯VG and ¯IG1,SC remains the same. Hence the change must come
from the sum in (2.2), and by aligning the voltage angle δ1 to the angle of the current
phasor in sum in (2.2), the maximum power contribution can be achieved.
¯SG1 = ¯V1 ¯I∗
G1 = ¯V1 ¯I∗
G1,SC + ¯V1
N
X
i=2
¯I∗
Gi,SC
(2.2)
When the other voltage sources are short circuited, the impedance G1 sees is the same
as the Thevenin impedance between node 1 and any of the other constant voltage nodes.
Knowing this, (2.1) can be rewritten as (2.3).
¯IG1 =
¯V1
¯ZTH
−
¯VTH
¯ZTH
(2.3)
Real-Time Stability Assessment for Corrective and Stabilizing Control of the Power System
13
==PAGE:14==
By finding the angle of the negative component of (2.3) (the same component as the
sum in (2.2)), the angle δ1 which produces the maximum amount of active power can be
calculated using (2.4).
δ1 = 180 −ϕTH
(2.4)
The difference from a generator’s current operating point in terms of rotor angle and
the maxmimum rotor angle described in Equation 2.4 can then be used to describe the
distance to instability. The ASSRAS method is the foundation of the TESCA method used
in chapter 4, discussed in detail in section 4.2. Furthermore, in chapter 6, the method is
used as a foundation to visualize the generators of a power system in the impedance plane
as well as their distance to instability.
2.4
Voltage Stability, the PQV-Surface and PV-Curves
Voltage stability and rotor angle stability are very similar phenomena, and the difference
is mainly in which principal system variable the instability is detected [9]. What may help
differentiate between the two, is the use of PV-curves (nose curves), commonly used in
voltage stability studies [1]. For the simple two bus system seen in Figure 2.4, the power
Figure 2.4: Two bus power system
transfer between the sending end E and receiving end V can be described with (2.5).
V 4 + V 2(2(RP + XQ) −E2) + (R2 + X2)(P 2 + Q2) = 0
(2.5)
From this, active power can be isolated, and the relationship between (positive) power
injection P, reactive power Q and receiving end voltage V can be fully described with
(2.6). Equation (2.6) can then be visualized, as in Figure 2.5, and the resulting surface is
known as the PQV-surface.
Ppos = −RV 2 −
p
−Q2(R2 + X2) + (R2 + X2)(E2 −2QX)V 2 −X2V 4
R2 + X2
(2.6)
In order to visualize the PV-curves, the surface can be projected onto a 2D-plot for different
values of the load angle θLD, resulting in the nose curves seen in Figure 2.6. The sending
end voltage E is fixed, and P and Q are linearly dependent on one another. The locus
(blue dotted line in Figure 2.6) represents the condition where ∂P
∂V = 0 for a given value
of Q, meaning that it is the maximum amount of active power the generator can inject
without risking voltage collapse [1]. The generators are operated on the top half of the
voltage curve, above the locus. When there is an increase in active power demand, the
voltage can then be lowered.
For the following investigation, the nose curves will not be used to analyze or diagnose
system stability, in order to narrow the scope of the thesis. Additionally, as stated in [1],
the PQV-surface is not suitable for monitoring multiple generators, as its shape changes
depending on the impedance of each connected transmission line and as such it is thus
more suitable for a post-fault analysis rather than real-time observation.
14
Real-Time Stability Assessment for Corrective and Stabilizing Control of the Power System
==PAGE:15==
Voltage [pu]
0.0
0.2
0.4
0.6
0.8
1.0
1.2
1.4
Reactive Power [pu]
−1.0
−0.8
−0.6
−0.4
−0.2
0.0
0.2
0.4
Active Power [pu]
0.0
0.2
0.4
0.6
0.8
1.0
Figure 2.5: The PQV-surface as described by (2.6).
0.0
0.1
0.2
0.3
0.4
0.5
0.6
0.7
Active Power P [MW]
0.0
0.2
0.4
0.6
0.8
1.0
1.2
Voltage V [kV]
θ
=
π
8
θ
=
π
16
θ
=
0
θ
=
π
16
θ
=
π
8
PV
-Curves
Figure 2.6: PV curves for different values of the load angle θLD.
Real-Time Stability Assessment for Corrective and Stabilizing Control of the Power System
15
==PAGE:16==
3
System Information
3.1
Choosing Test Systems
In order to analyze ASSRA unstable cases, a well-known system prone to rotor angle
instabilities was needed.
For the project, the Nordic32 system was chosen, which has
a total of 46 buses, 52 transmission lines and 22 transformers, amongst other elements.
Compared to the eﬀiciency of the ASSRAS assessment, this system has been shown to
be appropriate for close-to-real-time computation ( ≈3 ms ), which allows for real-time
monitoring of ASSRAS margins. Furthermore, the Nordic32 system is well-known within
stability studies [13], which makes it ideal for analysing ASSRAS instabilities.
Since the verification processes of optimal power flow can be highly complex in larger
networks, the project needed a smaller system to verify OPF results and methodology. This
was found to be beneficial in the project scope, to ease troubleshooting of the admittance
matrix (81 cells in the 9-bus system vs.
2116 cells for the Nordic32 system) and the
development of the remedial action. In addition to that, running an optimal power flow on
larger systems can take a longer time. Thus, in order to ease the testing and development
of the remedial action, the IEEE 9-Bus system was also implemented, a well-known system
for testing new ideas and concepts [14].
3.2
IEEE 9-Bus System
The IEEE 9-bus system seen in Figure 3.1 was mainly used as a test system for the
optimization process. It consists of 9 buses, 9 branches, 3 synchronous generators and
3 loads. The original test-system has 9 transmission lines, but for some of the tests the
transmission line between buses 1 and 4 was replaced with a transformer (represented with
dotted lines in Figure 3.1). This was done to better encapture the characteristics of the
large test system, catching any possible errors produced by incorporating the transformers
(see subsection 5.4.4 for more discussion on the effect of the transformers). The nominal
voltage for all buses is 345 kV and the nominal frequency is 50 Hz.
Figure 3.1: A single line diagram of the IEEE 9-bus system.
16
Real-Time Stability Assessment for Corrective and Stabilizing Control of the Power System
==PAGE:17==
3.3
The Nordic32 System
The power system model chosen to perform ASSRAS analyses is a variation of the Nordic32
system, initially described by [13]. It was originally designed to test transient stability as
well as long term dynamics and has been widely used for conducting voltage stability tests
(see [5], [7], [15] and [16]). At the time of creation the dynamics of the system were meant
to emulate the Swedish/Nordic power grid, which was characterised by a long grid with
large generation in the north and a large load in the central area. The grid is especially
prone to voltage and rotor angle instabilities, making it an interesting system on which to
conduct an ASSRAS analysis [13].
An approximate geographical representation of the system can be seen in Figure 3.2,
where the North area has a lot of hydro generation, the Central area has large loads, and
although the Southwest area has some thermal generation, its only connection to the rest