==PAGE:1==
DTU Wind and Energy Systems
Wake analysis of floating wind 
turbines using multi-fidelity AMR-Wind-
OpenFast simulations
Alexandru Guntner
DTU Wind-M-0985
July 2025
==PAGE:2==
DTU Wind-M-0985
July 2025
ECTS: 45
Education: Master of Science
Supervisor(s):
Hamid Sarlak
DTU Wind & Energy Systems
Delphine De Tavernier
Axelle Viré
TU Delft
Remarks:
This report is submitted as partial 
fulfillment of the requirements for 
graduation in the above education at 
the Technical University of Denmark.
Technical University of 
Denmark Department of Wind and 
Energy Systems Frederiksborgvej 
399 4000 Roskilde
Denmark
www.wind.dtu.dk
Author:
Alexandru Guntner
Title:
Wake analysis of floating wind turbines using 
multi-fidelity AMR-Wind-OpenFast simulations
DTU Wind & Energy Systems is a department of 
the Technical University of Denmark with a unique 
integration of research, education, innovation and 
public/private sector consulting in the field of wind 
energy. Our activities develop new opportunities 
and technology for the global and Danish 
exploitation of wind energy. Research focuses on 
key technical-scientific fields, which are central for 
the development, innovation and use of wind 
energy and provides the basis for advanced 
education at the education.
==PAGE:3==
Wake analysis of Floating Wind Turbines
using multifidelity
AMR-Wind-OpenFAST simulations
Alexandru Guntner
to obtain the degrees of:
Master of Science
in Wind Energy
at Technical University of Denmark
Master of Science
in Aerospace Engineering
at Delft University of Technology
Supervisors:
Hamid Sarlak
DTU
Axelle Viré
TU Delft
Delphine De Tavernier
TU Delft
An electronic version of this thesis is available at
https://repository.tudelft.nl
==PAGE:4==
Preface
The past two years have flown by, yet I can still vividly remember the moment I found
out I had been accepted into the European Wind Energy Master.
I was filled with
excitement at the prospect of beginning this new chapter of my life. What followed was
a roller coaster of emotions, challenges, but also meaningful experiences that helped me
grow both personally and professionally. Throughout this journey, I had the chance to
delve into the technical aspects of these huge rotating machines, the wind turbines. At
the same time, moving from my new “home” in the Netherlands to Denmark pushed me
out of my comfort zone once again. It allowed me to explore a beautiful country, adapt
to a different way of life, and build long-lasting friendships.
The topic of this thesis comes from my interest in floating wind turbines, which first
sparked during a course on this subject taught by Axelle Viré and Delphine De Tavernier.
I have always been fascinated by the colorful visualizations of moving airflow, and so
I decided to explore the subject through numerical methods. The initial concepts for
this work emerged through discussions with Hamid Sarlak. He put his trust in me by
giving me the responsibility to contribute to the INF4INITY project, while also allowing
me the freedom to pursue what I believed was the best path. I would like to thank my
supervisors Axelle, Delphine and Hamid for their guidance, encouragement, and even
the informal conversations we had during this time.
I am also grateful to everyone who supported me along the way, my friends and family.
A special mention to my parents for always being there for me during the past five years
I have lived far from home. Your love has meant everything.
Alexandru Guntner
July 2025, Copenhagen
i
==PAGE:5==
Abstract
The growing global demand for green energy requires the development of innovative
solutions.
Floating offshore wind turbines (FOWTs) present significant potential by
enabling the harvesting of wind in deep-sea waters. However, as this technology is still
in its early stages, the impact of the added six degrees of freedom (6-DOF) motion on
wake dynamics and power performance remains unclear. Understanding these effects is
critical for the design of floating wind farms. In this work, large eddy simulations and
an actuator line model are employed to investigate the wake behavior and power output
of the IEA-15MW reference turbine mounted on several floating platform concepts. To
explore wake interactions in wind farm scenarios, two tandem FOWTs are modelled. The
simulations are carried out in AMR-Wind, coupled with OpenFAST for the platform and
blades’ motion. Initial cases are conducted with a laminar inflow to isolate fundamental
wake mechanisms. Then, a neutral atmospheric boundary layer (ABL) is recreated to
perform investigations with realistic offshore conditions. Platform motions are found
to induce velocity fluctuations in the wake and promote vortex-pairing. High-frequency
and large-amplitude motions particularly enhance wake recovery in the upstream wake,
although this effect is less pronounced in the downstream wake. Among all 6-DOF, surge
is identified as the main driver of wake dynamics. FOWTs generate larger turbulence
levels than their fixed counterparts during laminar inflow. Notably, when the downstream
turbine moves in phase with the incoming wake, the resulting interaction leads to the
superimposition of the wake structures, forming large, separated low-speed regions. In
contrast, under turbulent conditions, FOWTs generate lower turbulence in the near
wake, but similar levels further downstream. In these cases, the differences in mean
wake velocity between floating and fixed turbines decrease significantly with distance.
The tandem FOWTs are found to produce less total power when operating at rated
speed during neutral ABL conditions. However, the downstream FOWTs exhibit power
gains of up to 20%, indicating that larger floating wind farms are likely to generate more
electricity than traditional bottom-fixed offshore wind farms.
Keywords: floating offshore wind turbines, wake, large-eddy simulations, actuator line,
AMR-Wind, OpenFAST
ii
==PAGE:6==
Contents
1
Introduction
1
1.1
Literature Review . . . . . . . . . . . . . . . . . . . . . . . . . . . . . . .
3
1.1.1
Wind Turbine Wakes . . . . . . . . . . . . . . . . . . . . . . . . .
3
1.1.2
Vorticity Generation . . . . . . . . . . . . . . . . . . . . . . . . .
5
1.1.3
Turbulence Generation . . . . . . . . . . . . . . . . . . . . . . . .
5
1.1.4
Interactions with Atmospheric Boundary Layer
. . . . . . . . . .
6
1.1.5
Floating Motion . . . . . . . . . . . . . . . . . . . . . . . . . . . .
8
1.1.6
Influence of Motion on the Wake
. . . . . . . . . . . . . . . . . .
10
1.1.7
Wake Interactions between Floating Wind Turbines . . . . . . . .
13
1.1.8
Numerical Framework
. . . . . . . . . . . . . . . . . . . . . . . .
15
1.2
Scope and Research Questions . . . . . . . . . . . . . . . . . . . . . . . .
18
2
Methodology
19
2.1
Large-Eddy Simulations
. . . . . . . . . . . . . . . . . . . . . . . . . . .
19
2.2
Actuator Line Method . . . . . . . . . . . . . . . . . . . . . . . . . . . .
21
2.3
OpenFAST
. . . . . . . . . . . . . . . . . . . . . . . . . . . . . . . . . .
24
2.3.1
Sea State Generation . . . . . . . . . . . . . . . . . . . . . . . . .
26
2.4
GICON’s 5th Generation Platform
. . . . . . . . . . . . . . . . . . . . .
27
2.5
AMR-Wind . . . . . . . . . . . . . . . . . . . . . . . . . . . . . . . . . .
30
3
Simulation Setups
31
3.1
Site Selection . . . . . . . . . . . . . . . . . . . . . . . . . . . . . . . . .
31
3.2
Design Load Cases
. . . . . . . . . . . . . . . . . . . . . . . . . . . . . .
33
3.3
Flow Solver . . . . . . . . . . . . . . . . . . . . . . . . . . . . . . . . . .
35
3.4
Computational Domain and Boundary Conditions . . . . . . . . . . . . .
35
3.5
Sampling . . . . . . . . . . . . . . . . . . . . . . . . . . . . . . . . . . . .
38
3.6
Mesh Comparison . . . . . . . . . . . . . . . . . . . . . . . . . . . . . . .
39
3.7
Subgrid-scale Model Comparison
. . . . . . . . . . . . . . . . . . . . . .
40
3.8
Smearing Radius Calibration . . . . . . . . . . . . . . . . . . . . . . . . .
41
3.9
Validation with Numerical Study
. . . . . . . . . . . . . . . . . . . . . .
44
3.10 Validation with Experimental Study . . . . . . . . . . . . . . . . . . . . .
45
3.11 Comparison of Computational Performance . . . . . . . . . . . . . . . . .
46
4
Results of Laminar Inflow Cases
48
4.1
Floaters Dynamics
. . . . . . . . . . . . . . . . . . . . . . . . . . . . . .
48
4.2
3D Spacing
. . . . . . . . . . . . . . . . . . . . . . . . . . . . . . . . . .
50
4.2.1
Flow Field Analysis . . . . . . . . . . . . . . . . . . . . . . . . . .
50
4.3
5D Spacing
. . . . . . . . . . . . . . . . . . . . . . . . . . . . . . . . . .
52
4.3.1
Flow Field Analysis . . . . . . . . . . . . . . . . . . . . . . . . . .
52
4.3.2
Turbines Performance
. . . . . . . . . . . . . . . . . . . . . . . .
57
4.4
Summary
. . . . . . . . . . . . . . . . . . . . . . . . . . . . . . . . . . .
58
iii
==PAGE:7==
Contents
5
Results of Neutral ABL Cases
60
5.1
Floaters Dynamics
. . . . . . . . . . . . . . . . . . . . . . . . . . . . . .
60
5.2
Precursor
. . . . . . . . . . . . . . . . . . . . . . . . . . . . . . . . . . .
61
5.3
3D Spacing
. . . . . . . . . . . . . . . . . . . . . . . . . . . . . . . . . .
62
5.3.1
Flow Field Analysis . . . . . . . . . . . . . . . . . . . . . . . . . .
62
5.4
5D Spacing
. . . . . . . . . . . . . . . . . . . . . . . . . . . . . . . . . .
66
5.4.1
Flow Field Analysis . . . . . . . . . . . . . . . . . . . . . . . . . .
66
5.5
Turbines Performance . . . . . . . . . . . . . . . . . . . . . . . . . . . . .
69
5.6
Summary
. . . . . . . . . . . . . . . . . . . . . . . . . . . . . . . . . . .
71
6
Conclusions
73
6.1
Outlook and Recommendations . . . . . . . . . . . . . . . . . . . . . . .
74
References
77
Appendix
96
A - Extreme Sea State . . . . . . . . . . . . . . . . . . . . . . . . . . . . . . .
96
B - Statistical Convergence
. . . . . . . . . . . . . . . . . . . . . . . . . . . .
98
C - Experimental Setup
. . . . . . . . . . . . . . . . . . . . . . . . . . . . . . 100
D - OpenFAST Inputs . . . . . . . . . . . . . . . . . . . . . . . . . . . . . . . 101
E - AMR-Wind Inputs . . . . . . . . . . . . . . . . . . . . . . . . . . . . . . . 105
iv
==PAGE:8==
List of Figures
1
Illustration of the wakes of two floating wind turbines in tandem.
. . . .
2
2
Flow regions and mean wind velocity profile of a floating offshore wind
turbine, including interaction with the incoming boundary layer. . . . . .
4
3
Wake structures of a large offshore wind turbine. . . . . . . . . . . . . . .
6
4
Schematic view of a conventionally neutral atmospheric boundary layer. .
7
5
The six degrees of freedom of a floating wind turbine. . . . . . . . . . . .
8
6
Mean displacements of three floating concepts reported from different
studies. . . . . . . . . . . . . . . . . . . . . . . . . . . . . . . . . . . . . .
9
7
Velocity triangle of floating wind turbine airfoil. In red, the additional
velocity components and angles change due to translational and rotational
motion respectively. . . . . . . . . . . . . . . . . . . . . . . . . . . . . . .
10
8
Operating modes of a floating wind turbine undergoing pitch and surge
motions. . . . . . . . . . . . . . . . . . . . . . . . . . . . . . . . . . . . .
11
9
Influence of harmonic surge motion on the vorticity of a wind turbine wake. 12
10
Instantaneous wind velocity (top) and vorticity (bottom) of bottom fixed
wind turbines in tandem using actuator line technique. . . . . . . . . . .
14
11
Vorticity around wind turbine predicted by actuator line and actuator
disk large-eddy simulations.
. . . . . . . . . . . . . . . . . . . . . . . . .
16
12
Schematic of the actuator line technique. . . . . . . . . . . . . . . . . . .
22
13
Representation of three different kernel functions. . . . . . . . . . . . . .
23
14
OpenFAST schematic . . . . . . . . . . . . . . . . . . . . . . . . . . . . .
24
15
From left to right: the IEA-15MW wind turbine mounted on the U-Maine
semi-sub, the WindCrete spar and GICON’s tension-leg platform. . . . .
25
16
Wave height evolution of the calm sea case at different spatial locations. .
26
17
3D rendering of the GICON’s floater. . . . . . . . . . . . . . . . . . . . .
27
18
Technical drawings of the GICON’s floater. . . . . . . . . . . . . . . . . .
28
19
Isosurface of q-criterion of a small wind farm simulation using AMR-Wind. 30
20
Geographical map of the Scottish Sea.
. . . . . . . . . . . . . . . . . . .
31
21
Probability density function of wind speed and significant wave height at
site.
. . . . . . . . . . . . . . . . . . . . . . . . . . . . . . . . . . . . . .
32
22
Joint probability between significant wave height and peak period for Uhub
= 10 m/s. . . . . . . . . . . . . . . . . . . . . . . . . . . . . . . . . . . .
32
23
Comparison of the floaters’ mean motion dynamics under calm waters.
.
34
24
Comparison of the floaters’ mean power and thrust under calm waters.
.
34
25
Mesh refinement in the single turbine domain for the laminar case. . . . .
36
26
Mesh refinement in the two turbines domain for the laminar case. . . . .
36
27
Mesh refinement for the neutral ABL cases.
. . . . . . . . . . . . . . . .
37
28
Averaged velocity and turbulence intensity in the neutral ABL cases.
. .
38
29
Averaged temperature and Reynolds stress in the neutral ABL cases.
. .
38
30
Instantaneous streamwise velocity for different grid sizes. . . . . . . . . .
39
v
==PAGE:9==
List of Figures
31
Streamwise averaged velocity along the wake for different SGS models.
.
40
32
Turbulent kinetic energy field for different SGS models. . . . . . . . . . .
41
33
Streamwise averaged velocity along the wake for different smearing radii.
42
34
Blade loading for different smearing radius values. . . . . . . . . . . . . .
43
35
Blade loading for different computational methods.
. . . . . . . . . . . .
43
36
Streamwise averaged velocity along the wake with the results from the
reference CFD study. . . . . . . . . . . . . . . . . . . . . . . . . . . . . .
44
37
Streamwise averaged velocity at 2.3D in the wake with the results from
the experimental study. . . . . . . . . . . . . . . . . . . . . . . . . . . . .
45
38
Average wall clock time for different computational setups. . . . . . . . .
46
39
Dynamic response of the floating wind turbines under laminar inflow and
calm waters (U hub = 10.59 m/s, Hs = 1.0 m, Tp = 7.5 s).
. . . . . . . . .
48
40
Dynamic response of the floating wind turbines under laminar inflow and
rough waters (U hub = 10.59 m/s, Hs = 10 m, Tp = 12 s).
. . . . . . . . .
49
41
Instantaneous streamwise velocity for the 3D laminar inflow configura-
tions under calm sea state (Cases 1 and 3). . . . . . . . . . . . . . . . . .
50
42
Streamwise averaged velocity along the wake for the 3D laminar inflow
configurations under calm sea state (Cases 1-4). . . . . . . . . . . . . . .
51
43
Turbulent kinetic energy for the 3D laminar inflow configurations under
calm sea state (Cases 1-4). . . . . . . . . . . . . . . . . . . . . . . . . . .
52
44
Instantaneous streamwise velocity for the 5D laminar inflow configura-
tions under calm sea state (Cases 5 and 7). . . . . . . . . . . . . . . . . .
53
45
Streamwise averaged velocity along the wake for the 5D laminar inflow
configurations under calm sea state (Cases 5-8). . . . . . . . . . . . . . .
53
46
Time evolution of the streamwise velocity for the 5D laminar inflow con-
figurations under extreme sea state (Case 10). . . . . . . . . . . . . . . .
54
47
Instantaneous gauge pressure for the 5D laminar inflow configurations
under extreme sea state (Case 10).
. . . . . . . . . . . . . . . . . . . . .
55
48
Characterization of the averaged velocity at x/D = 6 along the wake for
the 5D laminar inflow configuration under extreme sea state (Case 10). .
56
49
Streamwise averaged velocity along the wake for the 5D laminar inflow
configurations under extreme sea state (Cases 1, 9, 10). . . . . . . . . . .
57
50
Power performance of the wind turbines for the 5D laminar inflow con-
figurations.
. . . . . . . . . . . . . . . . . . . . . . . . . . . . . . . . . .
57
51
Comparison of the averaged streamwise velocity (top), turbulence inten-
sity (middle) and vertical wake center (bottom) for different wind turbine
configurations under laminar inflow conditions (U hub = 10.59 m/s).
. . .
59
52
Dynamic response of the floating wind turbines under neutral ABL and
calm waters (U hub = 10.59 m/s, TI = 5%, Hs = 1.0 m, Tp = 7.5 s). . . . .
60
53
Dynamic response of the floating wind turbines under neutral ABL and
rough waters (U hub = 10.59 m/s, TI= 5%, Hs = 10 m, Tp = 12 s). . . . .
61
vi
==PAGE:10==
List of Figures
54
Streamwise velocity from the precursor simulation along the frontal plane
(left) and at hub height, zhub = 150 m (right). . . . . . . . . . . . . . . .
61
55
Instantaneous streamwise velocity for the 5D neutral ABL configurations
under calm sea state (Cases 11 and 14). . . . . . . . . . . . . . . . . . . .
62
56
Averaged streamwise velocity difference between floating and fixed con-
figurations for the 3D neutral ABL configurations under calm sea state
(Cases 12 and 14).
. . . . . . . . . . . . . . . . . . . . . . . . . . . . . .
63
57
Turbulent kinetic energy for the 3D neutral ABL configurations under
calm sea state (Cases 11, 13, 14). . . . . . . . . . . . . . . . . . . . . . .
64
58
Streamwise averaged velocity along the wake for the 3D neutral ABL
configurations under calm sea state (Cases 11-14). . . . . . . . . . . . . .
65
59
Streamwise averaged velocity along the wake for the 3D neutral ABL
configurations under calm sea state (Cases 11-14). . . . . . . . . . . . . .
65
60
Averaged streamwise velocity difference between floating and fixed con-
figurations for the 5D neutral ABL cases under calm sea state (Cases 16
and 18). . . . . . . . . . . . . . . . . . . . . . . . . . . . . . . . . . . . .
66
61
Streamwise averaged velocity along the wake for the 5D neutral ABL
configurations under calm sea state (Cases 15-18). . . . . . . . . . . . . .
66
62
Instantaneous streamwise velocity for the 5D neutral ABL configurations
under extreme sea state (Cases 15 and 19). . . . . . . . . . . . . . . . . .
67
63
Plane-averaged streamwise velocity along different locations in the wake
for the 5D neutral ABL configurations under extreme sea state (Cases 15
and 19). . . . . . . . . . . . . . . . . . . . . . . . . . . . . . . . . . . . .
68
64
Instantaneous streamwise velocity for the 5D neutral ABL configurations
under extreme sea state, top view (Cases 15 and 19). . . . . . . . . . . .
68
65
Horizontal wake center for different wind turbine configurations for the
5D neutral ABL conditions under extreme sea state (Cases 15, 19, 20). .
69
66
Power performance of the wind turbines under neutral ABL and calm sea
state. . . . . . . . . . . . . . . . . . . . . . . . . . . . . . . . . . . . . . .
70
67
Power performance of the wind turbines under neutral ABL for the 5D
configurations in extreme sea state. . . . . . . . . . . . . . . . . . . . . .
70
68
Comparison of the averaged streamwise velocity (top) and turbulence in-
tensity (bot) for different wind turbine configurations under neutral ABL
conditions (U hub = 10.59 m/s, TI = 5%). . . . . . . . . . . . . . . . . . .
71
69
Wave height evolution of the extreme sea state at different spatial locations. 96
70
PSD of surge motion for the 5D-spaced spar wind turbines in laminar
inflow under extreme sea state (Case 10). . . . . . . . . . . . . . . . . . .
96
71
Streamwise averaged velocity along the wake for the 5D neutral ABL
configurations under extreme sea state (Case 19). . . . . . . . . . . . . .
97
72
Streamwise averaged velocity along the wake for the 5D neutral ABL
configurations under extreme sea state. . . . . . . . . . . . . . . . . . . .
97
vii
==PAGE:11==
73
Surge and pitch evolution for the 5D-spaced floating wind turbines in
laminar inflow under calm sea state (Cases 6-8). . . . . . . . . . . . . . .
98
74
Moving average of the plane-averaged streamwise velocity (left) and stan-
dard deviation (right) at 10D in the wake for laminar inflow (Case 5). . .
99
75
Moving average of the plane-averaged streamwise velocity (left) and stan-
dard deviation (right) at 10D in the wake for neutral ABL (Case 15). . .
99
76
Lateral view of the numerical domain used for the experimental setup. . . 100
77
Upper view of the numerical domain used for the experimental setup. . . 100
viii
==PAGE:12==
List of Tables
1
Methods and environmental conditions in selected floating wind studies. .
9
2
Numerical methods of selected studies focusing on multiple floating wind
turbines. . . . . . . . . . . . . . . . . . . . . . . . . . . . . . . . . . . . .
13
3
High fidelity CFD tools suited for floating wind turbine analysis. . . . . .
17
4
GICON’s tension-leg platform structural and hydrodynamic properties. .
29
5
GICON’s tension-leg platform mooring lines properties. . . . . . . . . . .
29
6
Floaters’ natural frequencies in Hertz. . . . . . . . . . . . . . . . . . . . .
29
7
Wind turbines layout and environmental conditions for laminar cases. . .
33
8
Wind turbines layout and environmental conditions for neutral ABL cases. 33
9
Mesh resolution of the cases investigated in the sensitivity analysis.
. . .
39
ix
==PAGE:13==
Nomenclature
Actuator Line
α
Angle of attack [deg]
ϵ
Smearing radius [m]
ηϵ
Smearing function [-]
c
Chord [m]
f
Force [N]
fϵ
Smeared force [N]
Fd
Drag [N]
Fl
Lift [N]
r
Blade spanwise coordinate [-]
w
Width of blade element [m]
Large-Eddy Simulations
¯s
Horizontally averaged velocity [m/s]
β
Thermal expansion coeﬀicient [1/K]
∆
Grid size [m]
δi
Filter width [m]
δij
Kronecker delta [-]
ϵijk
Levi-Civita tensor [-]
ˆ∂i
Anisotropic derivative [-]
κ
von Karman constant [-]
µ
Kinematic viscosity [m2/s]
νt
Eddy viscosity [m2/s]
Ω
Earth’s angular velocity [rad/s]
τ
Subgrid scale stress tensor [m2/s2]
τθ
Subgrid scale heat flux [Km/s]
θ
Temperature [K]
θ0
Ambient temperature [K]
B
Bouyancy term [N]
C
Coriolis force [N]
g
Gravitational acceleration [m/s2]
p
Pressure [Pa]
Pr
Laminar Prandlt number [-]
Sij
Strain rate tensor [1/s]
u
Velocity component [m/s]
uτ
Friction velocity [m/s]
z0
Roughness length [m]
zb
Distance to closer grid cell [m]
Wind Turbine
β
Wave propagation direction [deg]
∆
Distance between wind turbines [m]
η
Wave elevation [m]
ωn
Wave frequency [1/s]
D
Rotor diameter [m]
fS
Surge frequency [1/s]
Hs
Significant wave height [m]
kn
Wave number [1/m]
Prated Rated power [MW]
Tp
Peak period [s]
U
Wind velocity [m/s]
U∞
Freestream velocity [m/s]
Urel
Relative velocity [m/s]
x
==PAGE:14==
Abbreviations
ABL
Atmospheric boundary layer
ADM
Actuator disk method
ALM
Actuator line method
AMD
Anisotropic minimum-dissipation
BEM
Blade element momentum
CFD
Computational fluid dynamics
CNBL
Conventionally neutral atmospheric boundary layer
DLC
Design load case
DOF
Degree of freedom
DNS
Direct numerical simulations
ECMWF
European Center for Medium Range Weather Forecasts
FLLC
Filtered lifting line correction
FOWT
Floating offshore wind turbine
FVW
Free vortex wake
HSB
Highj-speed bubble
IB
Immersed boundary
IDFT
Inverse discrete fourier transform
IEA
International Energy Agency
IEC
International Electrotechnical Commission
INF4INITY INtegrated designs for Future Floating oFFshore wINd farm TechnologY
LASD
Lagrangian-averaged scale-dependent
LES
Large-eddy simulations
NREL
National Renewable Energy Laboratory
PIWS
Phase-induced wake separation
xi
==PAGE:15==
POD
Proper orthogonal decomposition
PSD
Power spectral density
RANS
Reynolds averaged Navier-Stokes
SGS
Subgrid-scale
SOWFA
Simulator for Off/Onshore Wind Farm Applications
TI
Turbulence intensity
TKE
Turbulence kinetic energy
TLP
Tension-leg platform
URANS
Unsteady Reynolds averaged Navier-Stokes
WALE
Wall-adapting local eddy-viscosity
WT
Wind turbine
xii
==PAGE:16==
1
Introduction
Floating offshore wind turbines (FOWTs) are gaining significant attention for their po-
tential energy applications in the near future. As the race towards a carbon-neutral
society continues, generating electricity from renewable sources has become more im-
portant than ever. Wind energy is one of the fastest-growing industries in the world
and is leading the green transition [1]. However, the increasing spatial constraints of
onshore and traditional offshore wind farms require innovative solutions to meet rising
energy demands. Deep offshore presents a significantly greater energy potential com-
pared to shallow water areas [2]. The implementation of FOWTs is necessary in regions
where sea depths exceed 50-60 m, in which bottom-fixed wind turbines become no longer
economically viable [3]. Far from the coast, they benefit from steadier winds, reduced
noise regulations and visual impact. Furthermore, floating foundations offer environ-
mental benefits compared to fixed-bottom designs due to the less intrusive construction
techniques employed on the seabed [4].
Altough FOWTs have been a focus of research since the mid 90’s, when the commercial
wind industry was becoming well established [5], it was not until 2009 when the first
large scale grid connected floating turbine was installed. This involved a 2.3 MW turbine
deployed by Equinor in Norway [6]. In the last decade, the advancement of floating con-
cepts has accelerated, with numerous prototypes being developed globally. A significant
milestone occurred in 2017 with the commissioning of Hywind Scotland, the world’s first
commercial floating offshore wind farm, which features five turbines with a capacity of
6 MW [7].
Currently, the limiting factor for the adoption of FOWTs is the cost associated with
floating platforms, which can be as expensive as the wind turbines [8]. According to the
International Renewable Energy Agency (IRENA) [9], the projected economies of scale
will make floating offshore wind competitive and commercially viable by 2035.
Because large-scale deployment has yet to occur, there is still limited understanding of
the dynamics and complex wake interactions between FOWTs, particularly within wind
farm configurations. This holds particularly true for the upcoming generation of wind
turbines exceeding 15 MW, which are expected to lead floating projects in the future.
Addressing these knowledge gaps is essential for optimizing wind farm layouts, enhancing
energy production, and reducing the levelized cost of energy. One critical challenge is
understanding how the additional degrees of freedom associated with FOWTs motion
affect wake recovery and the dissipation of turbulent kinetic energy [10]. The flow field
generated by the moving platform leads to unsteady aerodynamics and the breakdown
of the momentum balance equations [11]. These phenomena lead to increased structural
loads and fluctuating power output [12, 13], which are key concerns given the high
operational and maintenance costs of FOWTs [14].
1
==PAGE:17==
This research aims to investigate the wake characteristics of two FOWTs in tandem by
means of multi-fidelity numerical simulations. A comprehensive comparison of different
floater designs and their performance is also made. The remainder of the work is struc-
tured as follows: a review of the theory behind wind turbine wakes and the current state
of research on FOWTs is presented in Section 1.1. This is followed by an outline of the
objectives and research questions. Chapter 2 introduces the methodology and relevant
theoretical framework. The simulation setup and its validation are described in Chapter
3. The results are then presented and discussed in Chapter 4 and Chapter 5. Lastly, the
conclusions and outlook of the work are provided in Chapter 6.
Figure 1: Illustration of the wakes of two floating wind turbines in tandem.
2
==PAGE:18==
1.1
Literature Review
1.1
Literature Review
This section outlines the key characteristics of wind turbine wakes and examines the
impact of floating wind turbine motion on wake evolution.
Additionally, it provides
a review of the numerical techniques commonly used to investigate these phenomena.
Fundamental aspects of wind energy are not rigorously discussed here but can be found
in the books of Hansen [15] and Burton et al. [16].
1.1.1
Wind Turbine Wakes
Wind turbines extract energy from the wind through their blades, which sweep out a
rotor disk that develops a pressure difference across its surface. This leads to a loss of
axial momentum in the wind and a reduction in the flow velocity behind the turbine.
This downstream region is known as the wake. To maintain conservation of momentum,
the imaginary streamtube of air passing through the turbine expands its cross-sectional
area as it travels downstream. By rotating, the blades exert a torque on the incoming
air, inducing a reaction that causes the wake to rotate in the opposite direction. The
magnitude of this rotation reduces as the downstream distance increases. Shear layers
are formed at the edge of the rotor disc and gradually merge until the central region of
the wake regains properties similar to the freestream.
The region upstream of a turbine is referred to as the induction region, while the down-
stream wake can be further divided into the near-wake and far-wake (see Figure 2). The
near-wake is directly influenced by the presence of the turbine blades and the associated
aerodynamic phenomena. As a result, it is characterized by a complex vortex system
and three-dimensional, unsteady and heterogeneous flow patterns [17]. In contrast, the
far-wake is influenced more by global wind turbine parameters, such as thrust and power
coeﬀicients, as well as incoming flow conditions, which allow for reasonably accurate
predictions of mean flow distributions in this region [18]. Generally, near-wake research
focuses on turbine performance and the physical processes of power extraction, whereas
far-wake studies emphasize wake interactions, turbulence models, and topographical ef-
fects, particularly in the context of wind farms [19].
Many of the theories and engineering models developed to study wind turbine wakes